api/pglib_opf_case2383wp_mp__api.m
%%%%%%%%%%%%%%%%%%%%%%%%%%%%%%%%%%%%%%%%%%%%%%%%%%%%%%%%%%%%%%%%%%%%%%%%%%%
%%%%                                                                  %%%%%
%%%%    IEEE PES Power Grid Library - Optimal Power Flow - v17.07     %%%%%
%%%%          (https://github.com/power-grid-lib/pglib-opf)           %%%%%
%%%%             Benchmark Group - Active Power Increase              %%%%%
%%%%                         27 - June - 2017                         %%%%%
%%%%                                                                  %%%%%
%%%%%%%%%%%%%%%%%%%%%%%%%%%%%%%%%%%%%%%%%%%%%%%%%%%%%%%%%%%%%%%%%%%%%%%%%%%
function mpc = pglib_opf_case2383wp_mp__api
mpc.version = '2';
mpc.baseMVA = 100.0;

%% area data
%	area	refbus
mpc.areas = [
	1	 18;
];

%% bus data
%	bus_i	type	Pd	Qd	Gs	Bs	area	Vm	Va	baseKV	zone	Vmax	Vmin
mpc.bus = [
	1	 1	 0.00	 0.00	 0.0	 0.0	 1	    1.09351	   -1.07010	 220.0	 1	    1.11000	    0.95000;
	2	 1	 0.00	 0.00	 0.0	 0.0	 1	    1.08469	   -1.26309	 220.0	 1	    1.11000	    0.95000;
	3	 1	 0.00	 0.00	 0.0	 0.0	 1	    1.05390	  -15.37873	 220.0	 1	    1.11000	    0.95000;
	4	 1	 0.00	 0.00	 0.0	 0.0	 1	    1.07424	   -3.79509	 220.0	 1	    1.11000	    0.95000;
	5	 1	 0.00	 0.00	 0.0	 0.0	 1	    1.07548	   -5.72135	 220.0	 1	    1.11000	    0.95000;
	6	 1	 0.00	 0.00	 0.0	 0.0	 1	    1.04438	   -1.21624	 400.0	 1	    1.05000	    0.95000;
	7	 1	 0.00	 0.00	 0.0	 0.0	 1	    1.07263	   -6.12026	 220.0	 1	    1.11000	    0.95000;
	8	 1	 0.00	 0.00	 0.0	 0.0	 1	    1.04905	   -0.94677	 400.0	 1	    1.05000	    0.95000;
	9	 1	 0.00	 0.00	 0.0	 0.0	 1	    1.05000	   -3.23927	 400.0	 1	    1.05000	    0.95000;
	10	 2	 12.75	 9.00	 0.0	 0.0	 1	    1.07961	  -11.62084	 220.0	 1	    1.11000	    0.95000;
	11	 1	 0.00	 0.00	 0.0	 0.0	 1	    1.07897	   -3.15134	 220.0	 1	    1.11000	    0.95000;
	12	 1	 0.00	 0.00	 0.0	 0.0	 1	    1.07143	   -6.12854	 220.0	 1	    1.11000	    0.95000;
	13	 1	 0.00	 0.00	 0.0	 0.0	 1	    1.07588	   -5.63221	 220.0	 1	    1.11000	    0.95000;
	14	 1	 0.00	 0.00	 0.0	 0.0	 1	    1.06903	   -2.94166	 220.0	 1	    1.11000	    0.95000;
	15	 1	 0.00	 0.00	 0.0	 0.0	 1	    1.03371	   -3.50274	 400.0	 1	    1.05000	    0.95000;
	16	 2	 57.22	 100.00	 0.0	 0.0	 1	    1.09631	   -0.60851	 220.0	 1	    1.11000	    0.95000;
	17	 2	 80.28	 150.00	 0.0	 0.0	 1	    1.08895	   -0.53722	 220.0	 1	    1.11000	    0.95000;
	18	 3	 159.52	 350.00	 0.0	 0.0	 1	    1.03478	   -0.00000	 400.0	 1	    1.05000	    0.95000;
	19	 1	 0.00	 0.00	 0.0	 0.0	 1	    1.07413	   -6.83049	 220.0	 1	    1.11000	    0.95000;
	20	 1	 0.00	 0.00	 0.0	 0.0	 1	    1.03609	    0.46211	 400.0	 1	    1.05000	    0.95000;
	21	 1	 0.00	 0.00	 0.0	 0.0	 1	    1.07392	   -6.54357	 220.0	 1	    1.11000	    0.95000;
	22	 1	 0.00	 0.00	 0.0	 0.0	 1	    1.07407	   -3.98300	 220.0	 1	    1.11000	    0.95000;
	23	 1	 0.00	 0.00	 0.0	 0.0	 1	    1.09603	    1.57724	 220.0	 2	    1.11000	    0.95000;
	24	 1	 0.00	 0.00	 0.0	 0.0	 1	    1.07136	   -0.26822	 220.0	 2	    1.11000	    0.95000;
	25	 1	 0.00	 0.00	 0.0	 0.0	 1	    1.07386	    0.20841	 220.0	 2	    1.11000	    0.95000;
	26	 1	 0.00	 0.00	 0.0	 0.0	 1	    1.09413	    1.09353	 220.0	 2	    1.11000	    0.95000;
	27	 1	 0.00	 0.00	 0.0	 0.0	 1	    1.07974	   -0.93724	 220.0	 2	    1.11000	    0.95000;
	28	 1	 0.00	 0.00	 0.0	 0.0	 1	    1.07973	   -0.93759	 220.0	 2	    1.11000	    0.95000;
	29	 2	 27.09	 60.00	 0.0	 0.0	 1	    1.11000	    4.05081	 220.0	 2	    1.11000	    0.95000;
	30	 2	 27.09	 60.00	 0.0	 0.0	 1	    1.10988	    4.06502	 220.0	 2	    1.11000	    0.95000;
	31	 2	 21.87	 50.00	 0.0	 0.0	 1	    1.04643	    3.96385	 400.0	 2	    1.05000	    0.95000;
	32	 1	 0.00	 0.00	 0.0	 0.0	 1	    1.04641	    3.95933	 400.0	 2	    1.05000	    0.95000;
	33	 1	 0.00	 0.00	 0.0	 0.0	 1	    1.07491	   -1.63485	 220.0	 2	    1.11000	    0.95000;
	34	 1	 0.00	 0.00	 0.0	 0.0	 1	    1.04374	    0.27437	 400.0	 2	    1.05000	    0.95000;
	35	 1	 0.00	 0.00	 0.0	 0.0	 1	    1.04378	    0.27099	 400.0	 2	    1.05000	    0.95000;
	36	 1	 0.00	 0.00	 0.0	 0.0	 1	    1.03690	    3.05519	 400.0	 2	    1.05000	    0.95000;
	37	 1	 0.00	 0.00	 0.0	 0.0	 1	    1.10200	    2.14039	 220.0	 2	    1.11000	    0.95000;
	38	 1	 0.00	 0.00	 0.0	 0.0	 1	    1.10200	    2.14114	 220.0	 2	    1.11000	    0.95000;
	39	 1	 0.00	 0.00	 0.0	 0.0	 1	    1.01926	    2.41261	 400.0	 2	    1.05000	    0.95000;
	40	 1	 0.00	 0.00	 0.0	 0.0	 1	    1.01916	    2.40926	 400.0	 2	    1.05000	    0.95000;
	41	 2	 12.50	 30.00	 0.0	 0.0	 1	    1.07442	    0.65791	 220.0	 2	    1.11000	    0.95000;
	42	 2	 12.50	 30.00	 0.0	 0.0	 1	    1.07455	    0.65218	 220.0	 2	    1.11000	    0.95000;
	43	 2	 25.00	 60.00	 0.0	 0.0	 1	    1.01076	    3.04581	 400.0	 2	    1.05000	    0.95000;
	44	 2	 25.00	 60.00	 0.0	 0.0	 1	    1.01084	    3.04212	 400.0	 2	    1.05000	    0.95000;
	45	 2	 166.65	 75.00	 0.0	 0.0	 1	    1.10249	    2.14988	 220.0	 2	    1.11000	    0.95000;
	46	 1	 0.00	 0.00	 0.0	 0.0	 1	    1.10249	    2.15344	 220.0	 2	    1.11000	    0.95000;
	47	 1	 0.00	 0.00	 0.0	 0.0	 1	    1.07455	   -1.65092	 220.0	 2	    1.11000	    0.95000;
	48	 1	 0.00	 0.00	 0.0	 0.0	 1	    1.09354	    1.33377	 220.0	 2	    1.11000	    0.95000;
	49	 1	 0.00	 0.00	 0.0	 0.0	 1	    1.09354	    1.33618	 220.0	 2	    1.11000	    0.95000;
	50	 1	 0.00	 0.00	 0.0	 0.0	 1	    1.02841	    1.40754	 400.0	 2	    1.05000	    0.95000;
	51	 1	 0.00	 0.00	 0.0	 0.0	 1	    1.02852	    1.39672	 400.0	 2	    1.05000	    0.95000;
	52	 1	 0.00	 0.00	 0.0	 0.0	 1	    1.07238	    0.03493	 220.0	 2	    1.11000	    0.95000;
	53	 1	 0.00	 0.00	 0.0	 0.0	 1	    1.07545	    0.21373	 220.0	 2	    1.11000	    0.95000;
	54	 1	 0.00	 0.00	 0.0	 0.0	 1	    1.07392	    0.21880	 220.0	 2	    1.11000	    0.95000;
	55	 1	 0.00	 0.00	 0.0	 0.0	 1	    1.10404	    2.72407	 220.0	 2	    1.11000	    0.95000;
	56	 1	 0.00	 0.00	 0.0	 0.0	 1	    1.08025	   -0.58138	 220.0	 3	    1.11000	    0.95000;
	57	 1	 23.96	 10.96	 0.0	 0.0	 1	    1.09089	   -0.07859	 220.0	 3	    1.11000	    0.95000;
	58	 1	 22.92	 5.79	 0.0	 0.0	 1	    1.09112	   -0.07771	 220.0	 3	    1.11000	    0.95000;
	59	 1	 0.00	 0.00	 0.0	 0.0	 1	    1.10011	    3.50453	 220.0	 3	    1.11000	    0.95000;
	60	 1	 0.00	 0.00	 0.0	 0.0	 1	    1.10026	    2.97222	 220.0	 3	    1.11000	    0.95000;
	61	 1	 0.00	 0.00	 0.0	 0.0	 1	    1.10888	    5.42717	 220.0	 3	    1.11000	    0.95000;
	62	 1	 0.00	 0.00	 0.0	 0.0	 1	    1.10887	    5.42825	 220.0	 3	    1.11000	    0.95000;
	63	 2	 38.96	 52.69	 0.0	 0.0	 1	    1.10462	    3.57697	 220.0	 3	    1.11000	    0.95000;
	64	 2	 36.88	 55.32	 0.0	 0.0	 1	    1.10975	    4.64247	 220.0	 3	    1.11000	    0.95000;
	65	 1	 13.96	 2.02	 0.0	 0.0	 1	    1.09929	    3.24555	 220.0	 3	    1.11000	    0.95000;
	66	 1	 0.00	 0.00	 0.0	 0.0	 1	    1.10061	    4.17197	 220.0	 3	    1.11000	    0.95000;
	67	 2	 62.97	 92.10	 0.0	 0.0	 1	    1.05000	    5.85363	 400.0	 3	    1.05000	    0.95000;
	68	 1	 0.00	 0.00	 0.0	 0.0	 1	    1.09073	    3.61516	 220.0	 3	    1.11000	    0.95000;
	69	 1	 0.00	 0.00	 0.0	 0.0	 1	    1.10227	    5.85148	 220.0	 3	    1.11000	    0.95000;
	70	 1	 0.00	 0.00	 0.0	 0.0	 1	    1.08697	    0.17102	 220.0	 3	    1.11000	    0.95000;
	71	 1	 0.00	 0.00	 0.0	 0.0	 1	    1.10245	    3.06347	 220.0	 3	    1.11000	    0.95000;
	72	 1	 0.00	 0.00	 0.0	 0.0	 1	    1.10245	    3.06347	 220.0	 3	    1.11000	    0.95000;
	73	 1	 0.00	 0.00	 0.0	 0.0	 1	    1.09132	    0.64181	 220.0	 3	    1.11000	    0.95000;
	74	 1	 0.00	 0.00	 0.0	 0.0	 1	    1.08766	    0.01399	 220.0	 3	    1.11000	    0.95000;
	75	 1	 0.00	 0.00	 0.0	 0.0	 1	    1.03818	   -0.50024	 400.0	 3	    1.05000	    0.95000;
	76	 1	 0.00	 0.00	 0.0	 0.0	 1	    1.03817	   -0.49996	 400.0	 3	    1.05000	    0.95000;
	77	 1	 0.00	 0.00	 0.0	 0.0	 1	    1.09915	    4.00459	 220.0	 3	    1.11000	    0.95000;
	78	 1	 0.00	 0.00	 0.0	 0.0	 1	    1.09804	    3.18263	 220.0	 3	    1.11000	    0.95000;
	79	 1	 0.00	 0.00	 0.0	 0.0	 1	    1.10219	    3.32087	 220.0	 3	    1.11000	    0.95000;
	80	 1	 0.00	 0.00	 0.0	 0.0	 1	    1.09153	   -0.02516	 220.0	 3	    1.11000	    0.95000;
	81	 1	 0.00	 0.00	 0.0	 0.0	 1	    1.09155	   -0.02561	 220.0	 3	    1.11000	    0.95000;
	82	 1	 0.00	 0.00	 0.0	 0.0	 1	    1.10559	    5.00553	 220.0	 3	    1.11000	    0.95000;
	83	 2	 16.67	 22.97	 0.0	 0.0	 1	    1.11000	    6.58590	 220.0	 3	    1.11000	    0.95000;
	84	 2	 16.46	 22.27	 0.0	 0.0	 1	    1.11000	    6.57614	 220.0	 3	    1.11000	    0.95000;
	85	 2	 10.42	 17.01	 0.0	 0.0	 1	    1.10584	    2.85689	 220.0	 3	    1.11000	    0.95000;
	86	 2	 10.42	 16.66	 0.0	 0.0	 1	    1.10584	    2.85215	 220.0	 3	    1.11000	    0.95000;
	87	 1	 11.56	 16.22	 0.0	 0.0	 1	    1.09478	    2.04069	 220.0	 3	    1.11000	    0.95000;
	88	 1	 0.00	 0.00	 0.0	 0.0	 1	    1.09479	    2.04264	 220.0	 3	    1.11000	    0.95000;
	89	 1	 0.00	 0.00	 0.0	 0.0	 1	    1.09908	    2.08523	 220.0	 3	    1.11000	    0.95000;
	90	 1	 0.00	 0.00	 0.0	 0.0	 1	    1.10228	    3.76460	 220.0	 3	    1.11000	    0.95000;
	91	 1	 0.00	 0.00	 0.0	 0.0	 1	    1.09822	    3.16209	 220.0	 3	    1.11000	    0.95000;
	92	 1	 0.00	 0.00	 0.0	 0.0	 1	    1.04084	    0.48008	 400.0	 3	    1.05000	    0.95000;
	93	 2	 10.42	 16.39	 0.0	 0.0	 1	    1.10785	    4.23806	 220.0	 3	    1.11000	    0.95000;
	94	 1	 0.00	 0.00	 0.0	 0.0	 1	    1.10782	    4.22141	 220.0	 3	    1.11000	    0.95000;
	95	 2	 7.18	 8.15	 0.0	 0.0	 1	    1.10178	    2.41570	 220.0	 3	    1.11000	    0.95000;
	96	 1	 0.00	 0.00	 0.0	 0.0	 1	    1.10179	    2.41170	 220.0	 3	    1.11000	    0.95000;
	97	 2	 9.06	 5.26	 0.0	 0.0	 1	    1.08595	    1.33586	 220.0	 3	    1.11000	    0.95000;
	98	 1	 0.00	 0.00	 0.0	 0.0	 1	    1.02119	    1.53186	 400.0	 3	    1.05000	    0.95000;
	99	 1	 0.00	 0.00	 0.0	 0.0	 1	    1.02127	    1.53862	 400.0	 3	    1.05000	    0.95000;
	100	 1	 0.00	 0.00	 0.0	 0.0	 1	    1.04335	    1.28863	 400.0	 3	    1.05000	    0.95000;
	101	 1	 0.00	 0.00	 0.0	 0.0	 1	    1.04334	    1.28706	 400.0	 3	    1.05000	    0.95000;
	102	 1	 0.00	 0.00	 0.0	 0.0	 1	    1.09937	    1.90276	 220.0	 3	    1.11000	    0.95000;
	103	 2	 18.86	 23.76	 0.0	 0.0	 1	    1.11000	    4.28779	 220.0	 3	    1.11000	    0.95000;
	104	 2	 35.12	 46.11	 0.0	 0.0	 1	    1.11000	    4.28583	 220.0	 3	    1.11000	    0.95000;
	105	 2	 35.22	 62.95	 0.0	 0.0	 1	    1.04293	    0.07533	 400.0	 3	    1.05000	    0.95000;
	106	 1	 0.00	 0.00	 0.0	 0.0	 1	    1.04292	    0.07493	 400.0	 3	    1.05000	    0.95000;
	107	 1	 0.00	 0.00	 0.0	 0.0	 1	    1.08508	   -0.02991	 220.0	 3	    1.11000	    0.95000;
	108	 1	 0.00	 0.00	 0.0	 0.0	 1	    1.08753	    0.16274	 220.0	 3	    1.11000	    0.95000;
	109	 2	 1.04	 22.36	 0.0	 0.0	 1	    1.11000	    5.92140	 220.0	 3	    1.11000	    0.95000;
	110	 2	 1.04	 22.18	 0.0	 0.0	 1	    1.10980	    5.74182	 220.0	 3	    1.11000	    0.95000;
	111	 2	 27.62	 18.00	 0.0	 0.0	 1	    1.09032	   -2.26994	 220.0	 4	    1.11000	    0.95000;
	112	 1	 0.00	 0.00	 0.0	 0.0	 1	    1.09028	   -2.27674	 220.0	 4	    1.11000	    0.95000;
	113	 1	 0.00	 0.00	 0.0	 0.0	 1	    1.06340	   -0.34247	 220.0	 4	    1.11000	    0.95000;
	114	 1	 0.00	 0.00	 0.0	 0.0	 1	    1.07495	    0.81742	 220.0	 4	    1.11000	    0.95000;
	115	 1	 0.00	 0.00	 0.0	 0.0	 1	    0.99110	    1.90620	 400.0	 4	    1.05000	    0.95000;
	116	 1	 0.00	 0.00	 0.0	 0.0	 1	    0.99118	    1.90315	 400.0	 4	    1.05000	    0.95000;
	117	 1	 0.00	 0.00	 0.0	 0.0	 1	    1.08452	   -5.19802	 220.0	 4	    1.11000	    0.95000;
	118	 1	 0.00	 0.00	 0.0	 0.0	 1	    1.06602	   -3.25223	 220.0	 4	    1.11000	    0.95000;
	119	 1	 0.00	 0.00	 0.0	 0.0	 1	    1.06602	   -3.25223	 220.0	 4	    1.11000	    0.95000;
	120	 1	 0.00	 0.00	 0.0	 0.0	 1	    1.05869	   -4.80200	 220.0	 4	    1.11000	    0.95000;
	121	 1	 0.00	 0.00	 0.0	 0.0	 1	    1.06819	    0.06344	 220.0	 4	    1.11000	    0.95000;
	122	 1	 0.00	 0.00	 0.0	 0.0	 1	    1.06819	    0.06344	 220.0	 4	    1.11000	    0.95000;
	123	 2	 5.73	 7.00	 0.0	 0.0	 1	    1.08807	   -3.70147	 220.0	 4	    1.11000	    0.95000;
	124	 2	 9.16	 17.00	 0.0	 0.0	 1	    1.08809	   -3.70365	 220.0	 4	    1.11000	    0.95000;
	125	 2	 37.22	 18.30	 0.0	 0.0	 1	    1.10127	   -2.74594	 220.0	 4	    1.11000	    0.95000;
	126	 1	 26.36	 15.90	 0.0	 0.0	 1	    1.10108	   -2.75147	 220.0	 4	    1.11000	    0.95000;
	127	 2	 26.81	 15.30	 0.0	 0.0	 1	    0.99854	   -3.27588	 400.0	 4	    1.05000	    0.95000;
	128	 1	 0.00	 0.00	 0.0	 0.0	 1	    0.99855	   -3.28029	 400.0	 4	    1.05000	    0.95000;
	129	 1	 0.00	 0.00	 0.0	 0.0	 1	    1.05767	   -5.85358	 220.0	 4	    1.11000	    0.95000;
	130	 1	 0.00	 0.00	 0.0	 0.0	 1	    1.04258	   -4.24114	 220.0	 4	    1.11000	    0.95000;
	131	 2	 71.60	 70.00	 0.0	 0.0	 1	    1.09832	    4.03266	 220.0	 4	    1.11000	    0.95000;
	132	 2	 34.41	 45.00	 0.0	 0.0	 1	    1.09861	    4.02858	 220.0	 4	    1.11000	    0.95000;
	133	 1	 0.00	 0.00	 0.0	 0.0	 1	    0.98771	    4.85106	 400.0	 4	    1.05000	    0.95000;
	134	 1	 0.00	 0.00	 0.0	 0.0	 1	    0.98768	    4.85637	 400.0	 4	    1.05000	    0.95000;
	135	 1	 0.00	 0.00	 0.0	 0.0	 1	    1.06516	   -4.07684	 220.0	 4	    1.11000	    0.95000;
	136	 1	 0.00	 0.00	 0.0	 0.0	 1	    1.06516	   -4.07684	 220.0	 4	    1.11000	    0.95000;
	137	 1	 0.00	 0.00	 0.0	 0.0	 1	    1.01375	    2.53565	 400.0	 4	    1.05000	    0.95000;
	138	 1	 0.00	 0.00	 0.0	 0.0	 1	    1.01375	    2.53565	 400.0	 4	    1.05000	    0.95000;
	139	 2	 34.61	 22.60	 0.0	 0.0	 1	    1.08748	   -3.91165	 220.0	 4	    1.11000	    0.95000;
	140	 2	 30.48	 19.60	 0.0	 0.0	 1	    1.08749	   -3.91098	 220.0	 4	    1.11000	    0.95000;
	141	 1	 0.00	 0.00	 0.0	 0.0	 1	    1.07061	   -9.04756	 220.0	 4	    1.11000	    0.95000;
	142	 1	 0.00	 0.00	 0.0	 0.0	 1	    1.06331	   -3.31465	 220.0	 4	    1.11000	    0.95000;
	143	 1	 0.00	 0.00	 0.0	 0.0	 1	    1.08265	   -5.66311	 220.0	 4	    1.11000	    0.95000;
	144	 1	 0.00	 0.00	 0.0	 0.0	 1	    1.08260	   -5.66523	 220.0	 4	    1.11000	    0.95000;
	145	 1	 0.00	 0.00	 0.0	 0.0	 1	    0.97601	   -5.13092	 400.0	 4	    1.05000	    0.95000;
	146	 1	 0.00	 0.00	 0.0	 0.0	 1	    0.97601	   -5.13092	 400.0	 4	    1.05000	    0.95000;
	147	 1	 0.00	 0.00	 0.0	 0.0	 1	    1.05020	   -3.46077	 220.0	 4	    1.11000	    0.95000;
	148	 1	 0.00	 0.00	 0.0	 0.0	 1	    1.05026	   -3.45666	 220.0	 4	    1.11000	    0.95000;
	149	 1	 0.00	 0.00	 0.0	 0.0	 1	    1.08005	   -5.74104	 220.0	 4	    1.11000	    0.95000;
	150	 1	 0.00	 0.00	 0.0	 0.0	 1	    1.06725	    0.14287	 220.0	 4	    1.11000	    0.95000;
	151	 1	 0.00	 0.00	 0.0	 0.0	 1	    1.06725	    0.14082	 220.0	 4	    1.11000	    0.95000;
	152	 1	 0.00	 0.00	 0.0	 0.0	 1	    1.06984	    0.31159	 220.0	 4	    1.11000	    0.95000;
	153	 1	 0.00	 0.00	 0.0	 0.0	 1	    1.06984	    0.31159	 220.0	 4	    1.11000	    0.95000;
	154	 1	 0.00	 0.00	 0.0	 0.0	 1	    1.03453	   -4.82926	 220.0	 4	    1.11000	    0.95000;
	155	 1	 0.00	 0.00	 0.0	 0.0	 1	    1.07718	   -6.31320	 220.0	 5	    1.11000	    0.95000;
	156	 1	 0.00	 0.00	 0.0	 0.0	 1	    1.11000	   -5.83232	 220.0	 5	    1.11000	    0.95000;
	157	 1	 0.00	 0.00	 0.0	 0.0	 1	    1.01241	   -5.18656	 400.0	 5	    1.05000	    0.95000;
	158	 1	 0.00	 0.00	 0.0	 0.0	 1	    1.01243	   -5.18533	 400.0	 5	    1.05000	    0.95000;
	159	 1	 0.00	 0.00	 0.0	 0.0	 1	    1.02740	   -5.44150	 400.0	 5	    1.05000	    0.95000;
	160	 1	 0.00	 0.00	 0.0	 0.0	 1	    1.02742	   -5.44462	 400.0	 5	    1.05000	    0.95000;
	161	 1	 0.00	 0.00	 0.0	 0.0	 1	    1.08109	   -7.31478	 220.0	 5	    1.11000	    0.95000;
	162	 1	 0.00	 0.00	 0.0	 0.0	 1	    1.08109	   -7.31394	 220.0	 5	    1.11000	    0.95000;
	163	 1	 0.00	 0.00	 0.0	 0.0	 1	    1.11000	   -5.21250	 220.0	 5	    1.11000	    0.95000;
	164	 1	 0.00	 0.00	 0.0	 0.0	 1	    1.10998	   -5.21532	 220.0	 5	    1.11000	    0.95000;
	165	 1	 0.00	 0.00	 0.0	 0.0	 1	    1.01990	   -5.76036	 400.0	 5	    1.05000	    0.95000;
	166	 1	 0.00	 0.00	 0.0	 0.0	 1	    1.08739	   -5.91160	 220.0	 5	    1.11000	    0.95000;
	167	 1	 0.00	 0.00	 0.0	 0.0	 1	    1.08743	   -5.90939	 220.0	 5	    1.11000	    0.95000;
	168	 1	 0.00	 0.00	 0.0	 0.0	 1	    1.03169	   -7.49794	 400.0	 5	    1.05000	    0.95000;
	169	 1	 0.00	 0.00	 0.0	 0.0	 1	    1.03169	   -7.50604	 400.0	 5	    1.05000	    0.95000;
	170	 1	 0.00	 0.00	 0.0	 0.0	 1	    1.06177	  -11.59720	 220.0	 5	    1.11000	    0.95000;
	171	 1	 0.00	 0.00	 0.0	 0.0	 1	    1.06180	  -11.59852	 220.0	 5	    1.11000	    0.95000;
	172	 1	 0.00	 0.00	 0.0	 0.0	 1	    1.08500	   -6.81037	 220.0	 5	    1.11000	    0.95000;
	173	 1	 0.00	 0.00	 0.0	 0.0	 1	    1.08496	   -6.81245	 220.0	 5	    1.11000	    0.95000;
	174	 1	 0.00	 0.00	 0.0	 0.0	 1	    1.07101	   -7.12991	 220.0	 5	    1.11000	    0.95000;
	175	 1	 0.00	 0.00	 0.0	 0.0	 1	    1.07101	   -7.13059	 220.0	 5	    1.11000	    0.95000;
	176	 2	 0.00	 40.00	 0.0	 0.0	 1	    1.01505	   -4.08832	 400.0	 5	    1.05000	    0.95000;
	177	 2	 0.00	 40.00	 0.0	 0.0	 1	    1.01519	   -4.09465	 400.0	 5	    1.05000	    0.95000;
	178	 1	 0.00	 0.00	 0.0	 0.0	 1	    1.09596	   -6.49869	 220.0	 5	    1.11000	    0.95000;
	179	 1	 0.00	 0.00	 0.0	 0.0	 1	    1.09599	   -6.49685	 220.0	 5	    1.11000	    0.95000;
	180	 2	 354.33	 49.60	 0.0	 0.0	 2	    1.03899	   -2.69186	 400.0	 6	    1.05000	    0.95000;
	181	 2	 0.00	 0.00	 0.0	 0.0	 3	    1.11000	    6.15318	 220.0	 6	    1.11000	    0.95000;
	182	 2	 0.00	 0.00	 0.0	 0.0	 5	    0.98772	    5.43586	 400.0	 6	    1.05000	    0.95000;
	183	 1	 150.00	 0.00	 0.0	 0.0	 3	    1.05000	   -0.65894	 400.0	 6	    1.05000	    0.95000;
	184	 2	 330.86	 50.30	 0.0	 0.0	 2	    1.09718	    0.38427	 220.0	 6	    1.11000	    0.95000;
	185	 2	 377.88	 36.70	 0.0	 0.0	 2	    1.03810	   -3.47578	 400.0	 6	    1.05000	    0.95000;
	186	 2	 34.75	 1.00	 0.0	 0.0	 5	    1.11000	   -2.92732	 220.0	 6	    1.11000	    0.95000;
	187	 1	 7.42	 1.50	 0.0	 0.0	 1	    1.06846	  -10.13715	 110.0	 1	    1.12000	    0.95000;
	188	 1	 7.96	 1.00	 0.0	 0.0	 1	    1.02014	  -20.92340	 110.0	 1	    1.12000	    0.95000;
	189	 1	 10.19	 8.70	 0.0	 0.0	 1	    1.01697	  -14.62415	 110.0	 1	    1.12000	    0.95000;
	190	 1	 6.38	 1.50	 0.0	 0.0	 1	    1.10282	   -4.63412	 110.0	 1	    1.12000	    0.95000;
	191	 1	 6.38	 1.60	 0.0	 0.0	 1	    1.09134	   -6.45020	 110.0	 1	    1.12000	    0.95000;
	192	 2	 31.86	 12.00	 0.0	 0.0	 1	    1.12000	   -5.41093	 110.0	 1	    1.12000	    0.95000;
	193	 1	 15.93	 3.00	 0.0	 0.0	 1	    1.11882	   -5.68732	 110.0	 1	    1.12000	    0.95000;
	194	 1	 0.00	 0.00	 0.0	 0.0	 1	    1.11727	   -5.96398	 110.0	 1	    1.12000	    0.95000;
	195	 1	 8.49	 2.00	 0.0	 0.0	 1	    1.09662	   -9.88438	 110.0	 1	    1.12000	    0.95000;
	196	 2	 7.21	 1.50	 0.0	 0.0	 1	    1.04348	   -9.57059	 110.0	 1	    1.12000	    0.95000;
	197	 1	 7.21	 1.50	 0.0	 0.0	 1	    1.06951	  -11.73938	 110.0	 1	    1.12000	    0.95000;
	198	 2	 12.85	 1.70	 0.0	 0.0	 1	    1.09362	  -10.42368	 110.0	 1	    1.12000	    0.95000;
	199	 1	 1.49	 0.50	 0.0	 0.0	 1	    1.10398	   -6.70915	 110.0	 1	    1.12000	    0.95000;
	200	 1	 1.13	 0.50	 0.0	 0.0	 1	    1.10148	   -9.67491	 110.0	 1	    1.12000	    0.95000;
...
];

%% generator data
%	bus	Pg	Qg	Qmax	Qmin	Vg	mBase	status	Pmax	Pmin	Pc1	Pc2	Qc1min	Qc1max	Qc2min	Qc2max	ramp_agc	ramp_10	ramp_30	ramp_q	apf
mpc.gen = [
	10	 35.0	 60.891	 240.0	 -240.0	 1.07961	 168.0	 1	 316	 35.0	 0.0	 0.0	 0.0	 0.0	 0.0	 0.0	 0.0	 0.0	 0.0	 0.0	 0.0; % NG
	16	 296.0	 166.221	 440.0	 -175.2	 1.09631	 823.0	 1	 296	 60.0	 0.0	 0.0	 0.0	 0.0	 0.0	 0.0	 0.0	 0.0	 0.0	 0.0	 0.0; % COW
	17	 470.0	 197.639	 660.0	 -235.0	 1.08895	 1234.0	 1	 470	 60.0	 0.0	 0.0	 0.0	 0.0	 0.0	 0.0	 0.0	 0.0	 0.0	 0.0	 0.0; % COW
	18	 327.0	 39.434	 1540.0	 -164.0	 1.03478	 2879.0	 1	 327	 60.0	 0.0	 0.0	 0.0	 0.0	 0.0	 0.0	 0.0	 0.0	 0.0	 0.0	 0.0; % COW
	29	 552.0	 267.24	 276.0	 -276.0	 1.11	 511.0	 1	 552	 35.0	 0.0	 0.0	 0.0	 0.0	 0.0	 0.0	 0.0	 0.0	 0.0	 0.0	 0.0; % COW
	30	 566.0	 -50.802	 283.0	 -283.0	 1.10988	 511.0	 1	 566	 35.0	 0.0	 0.0	 0.0	 0.0	 0.0	 0.0	 0.0	 0.0	 0.0	 0.0	 0.0; % COW
	31	 906.0	 118.869	 453.0	 -453.0	 1.04643	 420.0	 1	 906	 75.0	 0.0	 0.0	 0.0	 0.0	 0.0	 0.0	 0.0	 0.0	 0.0	 0.0	 0.0; % COW
	41	 35.0	 -72.39	 120.0	 -81.0	 1.07442	 241.0	 1	 162	 35.0	 0.0	 0.0	 0.0	 0.0	 0.0	 0.0	 0.0	 0.0	 0.0	 0.0	 0.0; % NG
	42	 35.0	 119.915	 120.0	 -74.0	 1.07455	 241.0	 1	 148	 35.0	 0.0	 0.0	 0.0	 0.0	 0.0	 0.0	 0.0	 0.0	 0.0	 0.0	 0.0; % NG
	43	 364.763	 -188.0	 240.0	 -188.0	 1.01076	 482.0	 1	 376	 35.0	 0.0	 0.0	 0.0	 0.0	 0.0	 0.0	 0.0	 0.0	 0.0	 0.0	 0.0; % NG
	44	 297.0	 -149.0	 240.0	 -149.0	 1.01084	 482.0	 1	 297	 35.0	 0.0	 0.0	 0.0	 0.0	 0.0	 0.0	 0.0	 0.0	 0.0	 0.0	 0.0; % NG
	45	 19.57	 68.324	 112.0	 -112.0	 1.10249	 49.0	 1	 224	 19.57	 0.0	 0.0	 0.0	 0.0	 0.0	 0.0	 0.0	 0.0	 0.0	 0.0	 0.0; % NG
	63	 72.5	 81.481	 302.0	 -104.0	 1.10462	 473.0	 1	 207	 72.5	 0.0	 0.0	 0.0	 0.0	 0.0	 0.0	 0.0	 0.0	 0.0	 0.0	 0.0; % NG
	64	 214.0	 116.644	 311.0	 -107.0	 1.10975	 475.0	 1	 214	 72.5	 0.0	 0.0	 0.0	 0.0	 0.0	 0.0	 0.0	 0.0	 0.0	 0.0	 0.0; % NG
	67	 887.0	 431.751	 449.0	 -444.0	 1.05	 864.0	 1	 887	 110.0	 0.0	 0.0	 0.0	 0.0	 0.0	 0.0	 0.0	 0.0	 0.0	 0.0	 0.0; % COW
	83	 708.0	 160.261	 354.0	 -354.0	 1.11	 239.0	 1	 708	 70.0	 0.0	 0.0	 0.0	 0.0	 0.0	 0.0	 0.0	 0.0	 0.0	 0.0	 0.0; % COW
	84	 215.0	 37.477	 190.0	 -108.0	 1.11	 251.0	 1	 215	 70.0	 0.0	 0.0	 0.0	 0.0	 0.0	 0.0	 0.0	 0.0	 0.0	 0.0	 0.0; % NG
	85	 20.0	 94.168	 125.0	 -100.0	 1.10584	 133.0	 1	 200	 20.0	 0.0	 0.0	 0.0	 0.0	 0.0	 0.0	 0.0	 0.0	 0.0	 0.0	 0.0; % NG
	86	 20.0	 138.942	 139.0	 -139.0	 1.10584	 133.0	 1	 278	 20.0	 0.0	 0.0	 0.0	 0.0	 0.0	 0.0	 0.0	 0.0	 0.0	 0.0	 0.0; % COW
	93	 384.0	 54.401	 192.0	 -192.0	 1.10785	 123.0	 1	 384	 40.0	 0.0	 0.0	 0.0	 0.0	 0.0	 0.0	 0.0	 0.0	 0.0	 0.0	 0.0; % COW
	95	 25.0	 3.205	 68.0	 -65.0	 1.10178	 105.0	 1	 130	 25.0	 0.0	 0.0	 0.0	 0.0	 0.0	 0.0	 0.0	 0.0	 0.0	 0.0	 0.0; % NG
	97	 134.026	 8.194	 105.0	 -105.0	 1.08595	 105.0	 1	 209	 41.63	 0.0	 0.0	 0.0	 0.0	 0.0	 0.0	 0.0	 0.0	 0.0	 0.0	 0.0; % NG
	103	 80.0	 125.236	 177.0	 -158.0	 1.11	 239.0	 1	 315	 80.0	 0.0	 0.0	 0.0	 0.0	 0.0	 0.0	 0.0	 0.0	 0.0	 0.0	 0.0; % NG
	104	 70.0	 107.862	 379.0	 -177.0	 1.11	 490.0	 1	 292	 70.0	 0.0	 0.0	 0.0	 0.0	 0.0	 0.0	 0.0	 0.0	 0.0	 0.0	 0.0; % NG
	105	 464.0	 14.127	 353.0	 -232.0	 1.04293	 502.0	 1	 464	 80.0	 0.0	 0.0	 0.0	 0.0	 0.0	 0.0	 0.0	 0.0	 0.0	 0.0	 0.0; % NG
	109	 172.0	 19.649	 86.0	 -86.0	 1.11	 277.0	 1	 172	 40.0	 0.0	 0.0	 0.0	 0.0	 0.0	 0.0	 0.0	 0.0	 0.0	 0.0	 0.0; % COW
	110	 110.0	 24.077	 65.0	 -55.0	 1.1098	 280.0	 1	 110	 40.0	 0.0	 0.0	 0.0	 0.0	 0.0	 0.0	 0.0	 0.0	 0.0	 0.0	 0.0; % NG
	111	 430.0	 5.677	 270.0	 -215.0	 1.09032	 401.0	 1	 430	 20.0	 0.0	 0.0	 0.0	 0.0	 0.0	 0.0	 0.0	 0.0	 0.0	 0.0	 0.0; % NG
	123	 127.0	 -63.724	 64.0	 -64.0	 1.08807	 98.0	 1	 127	 10.0	 0.0	 0.0	 0.0	 0.0	 0.0	 0.0	 0.0	 0.0	 0.0	 0.0	 0.0; % NG
	124	 22.5	 19.4	 90.0	 -67.0	 1.08809	 132.0	 1	 133	 22.5	 0.0	 0.0	 0.0	 0.0	 0.0	 0.0	 0.0	 0.0	 0.0	 0.0	 0.0; % NG
	125	 210.0	 360.0	 360.0	 -271.2	 1.10127	 654.0	 1	 210	 35.0	 0.0	 0.0	 0.0	 0.0	 0.0	 0.0	 0.0	 0.0	 0.0	 0.0	 0.0; % COW
	127	 162.0	 -256.574	 360.0	 -314.4	 0.99854	 540.0	 1	 162	 35.0	 0.0	 0.0	 0.0	 0.0	 0.0	 0.0	 0.0	 0.0	 0.0	 0.0	 0.0; % COW
	131	 435.0	 -139.497	 360.0	 -218.0	 1.09832	 696.0	 1	 435	 35.0	 0.0	 0.0	 0.0	 0.0	 0.0	 0.0	 0.0	 0.0	 0.0	 0.0	 0.0; % COW
	132	 221.0	 479.285	 480.0	 -111.0	 1.09861	 732.0	 1	 221	 35.0	 0.0	 0.0	 0.0	 0.0	 0.0	 0.0	 0.0	 0.0	 0.0	 0.0	 0.0; % COW
	139	 35.0	 3.333	 360.0	 -94.0	 1.08748	 714.0	 1	 188	 35.0	 0.0	 0.0	 0.0	 0.0	 0.0	 0.0	 0.0	 0.0	 0.0	 0.0	 0.0; % COW
	140	 35.0	 -8.083	 120.0	 -72.0	 1.08749	 240.0	 1	 143	 35.0	 0.0	 0.0	 0.0	 0.0	 0.0	 0.0	 0.0	 0.0	 0.0	 0.0	 0.0; % NG
	176	 464.0	 -231.91	 232.0	 -232.0	 1.01505	 430.0	 1	 464	 35.0	 0.0	 0.0	 0.0	 0.0	 0.0	 0.0	 0.0	 0.0	 0.0	 0.0	 0.0; % COW
	177	 35.0	 63.624	 220.0	 -120.0	 1.01519	 430.0	 1	 213	 35.0	 0.0	 0.0	 0.0	 0.0	 0.0	 0.0	 0.0	 0.0	 0.0	 0.0	 0.0; % NG
	180	 0.0	 44.753	 99999.0	 -99999.0	 1.03899	 7485.0	 1	 0	 0.0	 0.0	 0.0	 0.0	 0.0	 0.0	 0.0	 0.0	 0.0	 0.0	 0.0	 0.0; % SYNC
	181	 87.0	 -12.154	 99999.0	 -99999.0	 1.11	 210.0	 1	 199	 87.0	 0.0	 0.0	 0.0	 0.0	 0.0	 0.0	 0.0	 0.0	 0.0	 0.0	 0.0; % NG
	182	 582.0	 -58.883	 99999.0	 -99999.0	 0.98772	 13465.0	 1	 582	 153.0	 0.0	 0.0	 0.0	 0.0	 0.0	 0.0	 0.0	 0.0	 0.0	 0.0	 0.0; % COW
	184	 0.0	 70.796	 99999.0	 -99999.0	 1.09718	 8353.0	 1	 0	 0.0	 0.0	 0.0	 0.0	 0.0	 0.0	 0.0	 0.0	 0.0	 0.0	 0.0	 0.0; % SYNC
	185	 0.0	 34.114	 99999.0	 -99999.0	 1.0381	 14254.0	 1	 0	 0.0	 0.0	 0.0	 0.0	 0.0	 0.0	 0.0	 0.0	 0.0	 0.0	 0.0	 0.0; % SYNC
	186	 0.0	 122.003	 99999.0	 -99999.0	 1.11	 7401.0	 1	 0	 0.0	 0.0	 0.0	 0.0	 0.0	 0.0	 0.0	 0.0	 0.0	 0.0	 0.0	 0.0; % SYNC
	192	 234.653	 2.994	 248.0	 -248.0	 1.12	 114.0	 1	 495	 45.125	 0.0	 0.0	 0.0	 0.0	 0.0	 0.0	 0.0	 0.0	 0.0	 0.0	 0.0; % NG
	196	 0.43	 1.169	 27.0	 -27.0	 1.04348	 1.0	 1	 53	 0.43	 0.0	 0.0	 0.0	 0.0	 0.0	 0.0	 0.0	 0.0	 0.0	 0.0	 0.0; % PEL
	198	 0.38	 6.797	 34.0	 -34.0	 1.09362	 1.0	 1	 68	 0.38	 0.0	 0.0	 0.0	 0.0	 0.0	 0.0	 0.0	 0.0	 0.0	 0.0	 0.0; % PEL
	205	 7.125	 7.303	 35.0	 -35.0	 1.12	 18.0	 1	 70	 7.125	 0.0	 0.0	 0.0	 0.0	 0.0	 0.0	 0.0	 0.0	 0.0	 0.0	 0.0; % NG
	213	 5.225	 23.533	 60.0	 -60.0	 1.08262	 13.0	 1	 119	 5.225	 0.0	 0.0	 0.0	 0.0	 0.0	 0.0	 0.0	 0.0	 0.0	 0.0	 0.0; % PEL
	264	 1.19	 -0.261	 21.0	 -21.0	 1.10987	 3.0	 1	 41	 1.19	 0.0	 0.0	 0.0	 0.0	 0.0	 0.0	 0.0	 0.0	 0.0	 0.0	 0.0; % PEL
	269	 2.85	 -0.693	 39.0	 -39.0	 1.09754	 7.0	 1	 77	 2.85	 0.0	 0.0	 0.0	 0.0	 0.0	 0.0	 0.0	 0.0	 0.0	 0.0	 0.0; % PEL
	277	 33.25	 42.053	 64.0	 -64.0	 1.11463	 84.0	 1	 128	 33.25	 0.0	 0.0	 0.0	 0.0	 0.0	 0.0	 0.0	 0.0	 0.0	 0.0	 0.0; % PEL
	278	 142.0	 14.129	 71.0	 -71.0	 1.12	 72.0	 1	 142	 28.5	 0.0	 0.0	 0.0	 0.0	 0.0	 0.0	 0.0	 0.0	 0.0	 0.0	 0.0; % NG
	279	 28.5	 20.18	 92.0	 -92.0	 1.119	 72.0	 1	 184	 28.5	 0.0	 0.0	 0.0	 0.0	 0.0	 0.0	 0.0	 0.0	 0.0	 0.0	 0.0; % PEL
	281	 57.0	 30.405	 176.0	 -176.0	 1.11504	 144.0	 1	 352	 57.0	 0.0	 0.0	 0.0	 0.0	 0.0	 0.0	 0.0	 0.0	 0.0	 0.0	 0.0; % NG
	282	 19.0	 23.091	 54.0	 -54.0	 1.11937	 48.0	 1	 107	 19.0	 0.0	 0.0	 0.0	 0.0	 0.0	 0.0	 0.0	 0.0	 0.0	 0.0	 0.0; % PEL
	289	 1.19	 17.196	 27.0	 -27.0	 1.11339	 3.0	 1	 54	 1.19	 0.0	 0.0	 0.0	 0.0	 0.0	 0.0	 0.0	 0.0	 0.0	 0.0	 0.0; % PEL
	294	 0.95	 12.71	 91.0	 -91.0	 1.08551	 2.0	 1	 182	 0.95	 0.0	 0.0	 0.0	 0.0	 0.0	 0.0	 0.0	 0.0	 0.0	 0.0	 0.0; % NG
	314	 0.715	 1.225	 22.0	 -22.0	 1.08248	 2.0	 1	 43	 0.715	 0.0	 0.0	 0.0	 0.0	 0.0	 0.0	 0.0	 0.0	 0.0	 0.0	 0.0; % PEL
	328	 20.9	 4.304	 130.0	 -130.0	 1.09625	 53.0	 1	 259	 20.9	 0.0	 0.0	 0.0	 0.0	 0.0	 0.0	 0.0	 0.0	 0.0	 0.0	 0.0; % NG
	329	 86.0	 23.26	 43.0	 -43.0	 1.11906	 53.0	 1	 86	 20.9	 0.0	 0.0	 0.0	 0.0	 0.0	 0.0	 0.0	 0.0	 0.0	 0.0	 0.0; % NG
	330	 100.757	 -32.815	 115.0	 -115.0	 1.10758	 53.0	 1	 229	 20.9	 0.0	 0.0	 0.0	 0.0	 0.0	 0.0	 0.0	 0.0	 0.0	 0.0	 0.0; % NG
	331	 20.425	 11.109	 103.0	 -103.0	 1.11442	 52.0	 1	 206	 20.425	 0.0	 0.0	 0.0	 0.0	 0.0	 0.0	 0.0	 0.0	 0.0	 0.0	 0.0; % NG
	334	 0.715	 3.614	 19.0	 -19.0	 1.08297	 2.0	 1	 37	 0.715	 0.0	 0.0	 0.0	 0.0	 0.0	 0.0	 0.0	 0.0	 0.0	 0.0	 0.0; % PEL
	346	 141.0	 34.018	 120.0	 -71.0	 1.09515	 180.0	 1	 141	 35.0	 0.0	 0.0	 0.0	 0.0	 0.0	 0.0	 0.0	 0.0	 0.0	 0.0	 0.0; % NG
	347	 5.0	 -8.393	 68.0	 -68.0	 1.08795	 12.0	 1	 136	 5.0	 0.0	 0.0	 0.0	 0.0	 0.0	 0.0	 0.0	 0.0	 0.0	 0.0	 0.0; % NG
	359	 72.0	 -8.176	 36.0	 -36.0	 1.11047	 2.0	 1	 72	 0.715	 0.0	 0.0	 0.0	 0.0	 0.0	 0.0	 0.0	 0.0	 0.0	 0.0	 0.0; % NG
	365	 2.425	 26.999	 27.0	 -27.0	 1.11029	 6.0	 1	 53	 2.425	 0.0	 0.0	 0.0	 0.0	 0.0	 0.0	 0.0	 0.0	 0.0	 0.0	 0.0; % PEL
	382	 4.367	 25.706	 29.0	 -29.0	 1.09462	 10.0	 1	 57	 3.8	 0.0	 0.0	 0.0	 0.0	 0.0	 0.0	 0.0	 0.0	 0.0	 0.0	 0.0; % NG
	383	 3.8	 72.999	 73.0	 -73.0	 1.09605	 10.0	 1	 145	 3.8	 0.0	 0.0	 0.0	 0.0	 0.0	 0.0	 0.0	 0.0	 0.0	 0.0	 0.0; % PEL
	385	 118.0	 23.841	 59.0	 -59.0	 1.10243	 7.0	 1	 118	 2.85	 0.0	 0.0	 0.0	 0.0	 0.0	 0.0	 0.0	 0.0	 0.0	 0.0	 0.0; % NG
	390	 2.14	 7.661	 24.0	 -24.0	 1.09182	 5.0	 1	 47	 2.14	 0.0	 0.0	 0.0	 0.0	 0.0	 0.0	 0.0	 0.0	 0.0	 0.0	 0.0; % NG
	395	 47.0	 -5.434	 36.0	 -36.0	 1.09821	 12.0	 1	 47	 4.75	 0.0	 0.0	 0.0	 0.0	 0.0	 0.0	 0.0	 0.0	 0.0	 0.0	 0.0; % NG
	404	 1.425	 12.843	 48.0	 -48.0	 1.08805	 4.0	 1	 95	 1.425	 0.0	 0.0	 0.0	 0.0	 0.0	 0.0	 0.0	 0.0	 0.0	 0.0	 0.0; % PEL
	426	 1.52	 16.803	 65.0	 -65.0	 1.06834	 4.0	 1	 130	 1.52	 0.0	 0.0	 0.0	 0.0	 0.0	 0.0	 0.0	 0.0	 0.0	 0.0	 0.0; % PEL
	444	 0.475	 -5.402	 38.0	 -38.0	 1.09548	 1.0	 1	 76	 0.475	 0.0	 0.0	 0.0	 0.0	 0.0	 0.0	 0.0	 0.0	 0.0	 0.0	 0.0; % PEL
	451	 2.14	 38.0	 38.0	 -38.0	 1.10635	 5.0	 1	 75	 2.14	 0.0	 0.0	 0.0	 0.0	 0.0	 0.0	 0.0	 0.0	 0.0	 0.0	 0.0; % PEL
	482	 0.475	 -11.108	 92.0	 -92.0	 1.07557	 1.0	 1	 184	 0.475	 0.0	 0.0	 0.0	 0.0	 0.0	 0.0	 0.0	 0.0	 0.0	 0.0	 0.0; % PEL
	492	 0.95	 -1.852	 44.0	 -44.0	 1.09517	 2.0	 1	 87	 0.95	 0.0	 0.0	 0.0	 0.0	 0.0	 0.0	 0.0	 0.0	 0.0	 0.0	 0.0; % PEL
	493	 285.098	 15.583	 165.0	 -165.0	 1.11556	 281.0	 1	 330	 111.15	 0.0	 0.0	 0.0	 0.0	 0.0	 0.0	 0.0	 0.0	 0.0	 0.0	 0.0; % COW
	494	 111.15	 83.886	 151.0	 -151.0	 1.08461	 281.0	 1	 302	 111.15	 0.0	 0.0	 0.0	 0.0	 0.0	 0.0	 0.0	 0.0	 0.0	 0.0	 0.0; % NG
	514	 250.0	 58.612	 125.0	 -125.0	 1.10411	 138.0	 1	 250	 54.625	 0.0	 0.0	 0.0	 0.0	 0.0	 0.0	 0.0	 0.0	 0.0	 0.0	 0.0; % NG
	515	 186.95	 112.242	 153.6	 -153.6	 1.0927	 138.0	 1	 278	 54.625	 0.0	 0.0	 0.0	 0.0	 0.0	 0.0	 0.0	 0.0	 0.0	 0.0	 0.0; % NG
	525	 2.85	 18.723	 55.0	 -55.0	 1.09114	 7.0	 1	 110	 2.85	 0.0	 0.0	 0.0	 0.0	 0.0	 0.0	 0.0	 0.0	 0.0	 0.0	 0.0; % PEL
	536	 2.85	 13.319	 33.0	 -33.0	 1.0819	 7.0	 1	 65	 2.85	 0.0	 0.0	 0.0	 0.0	 0.0	 0.0	 0.0	 0.0	 0.0	 0.0	 0.0; % PEL
	537	 94.0	 -0.48	 47.0	 -47.0	 1.12	 4.0	 1	 94	 1.665	 0.0	 0.0	 0.0	 0.0	 0.0	 0.0	 0.0	 0.0	 0.0	 0.0	 0.0; % NG
	556	 1.285	 6.733	 39.0	 -39.0	 1.08744	 3.0	 1	 77	 1.285	 0.0	 0.0	 0.0	 0.0	 0.0	 0.0	 0.0	 0.0	 0.0	 0.0	 0.0; % PEL
	580	 0.76	 0.613	 105.0	 -105.0	 1.11355	 2.0	 1	 209	 0.76	 0.0	 0.0	 0.0	 0.0	 0.0	 0.0	 0.0	 0.0	 0.0	 0.0	 0.0; % PEL
	584	 1.285	 2.796	 28.0	 -28.0	 1.10807	 3.0	 1	 55	 1.285	 0.0	 0.0	 0.0	 0.0	 0.0	 0.0	 0.0	 0.0	 0.0	 0.0	 0.0; % PEL
	585	 69.0	 2.151	 35.0	 -35.0	 1.11069	 5.0	 1	 69	 1.9	 0.0	 0.0	 0.0	 0.0	 0.0	 0.0	 0.0	 0.0	 0.0	 0.0	 0.0; % NG
	607	 0.38	 -14.967	 75.0	 -75.0	 1.06475	 1.0	 1	 150	 0.38	 0.0	 0.0	 0.0	 0.0	 0.0	 0.0	 0.0	 0.0	 0.0	 0.0	 0.0; % PEL
	612	 35.0	 258.85	 262.0	 -262.0	 1.10509	 256.0	 1	 523	 35.0	 0.0	 0.0	 0.0	 0.0	 0.0	 0.0	 0.0	 0.0	 0.0	 0.0	 0.0; % NG
	613	 457.0	 -228.989	 229.0	 -229.0	 1.10489	 256.0	 1	 457	 35.0	 0.0	 0.0	 0.0	 0.0	 0.0	 0.0	 0.0	 0.0	 0.0	 0.0	 0.0; % COW
	615	 0.665	 14.719	 80.0	 -80.0	 1.0934	 2.0	 1	 160	 0.665	 0.0	 0.0	 0.0	 0.0	 0.0	 0.0	 0.0	 0.0	 0.0	 0.0	 0.0; % PEL
	623	 58.512	 6.094	 85.0	 -85.0	 1.10673	 9.0	 1	 169	 3.61	 0.0	 0.0	 0.0	 0.0	 0.0	 0.0	 0.0	 0.0	 0.0	 0.0	 0.0; % NG
	639	 96.0	 -0.775	 48.0	 -48.0	 1.11449	 12.0	 1	 96	 4.56	 0.0	 0.0	 0.0	 0.0	 0.0	 0.0	 0.0	 0.0	 0.0	 0.0	 0.0; % NG
	651	 150.05	 6.284	 100.0	 -100.0	 1.11939	 6.0	 1	 199	 2.235	 0.0	 0.0	 0.0	 0.0	 0.0	 0.0	 0.0	 0.0	 0.0	 0.0	 0.0; % NG
	654	 0.665	 0.31	 37.0	 -37.0	 1.08783	 2.0	 1	 73	 0.665	 0.0	 0.0	 0.0	 0.0	 0.0	 0.0	 0.0	 0.0	 0.0	 0.0	 0.0; % PEL
	664	 72.0	 18.114	 36.0	 -36.0	 1.09896	 7.0	 1	 72	 2.945	 0.0	 0.0	 0.0	 0.0	 0.0	 0.0	 0.0	 0.0	 0.0	 0.0	 0.0; % NG
	670	 1.285	 8.696	 33.0	 -33.0	 1.06618	 3.0	 1	 65	 1.285	 0.0	 0.0	 0.0	 0.0	 0.0	 0.0	 0.0	 0.0	 0.0	 0.0	 0.0; % PEL
	674	 0.475	 -0.243	 61.0	 -61.0	 1.08778	 1.0	 1	 121	 0.475	 0.0	 0.0	 0.0	 0.0	 0.0	 0.0	 0.0	 0.0	 0.0	 0.0	 0.0; % PEL
	688	 116.0	 68.768	 120.0	 -58.0	 1.09843	 242.0	 1	 116	 35.0	 0.0	 0.0	 0.0	 0.0	 0.0	 0.0	 0.0	 0.0	 0.0	 0.0	 0.0; % NG
	692	 0.665	 15.867	 42.0	 -42.0	 1.10622	 2.0	 1	 84	 0.665	 0.0	 0.0	 0.0	 0.0	 0.0	 0.0	 0.0	 0.0	 0.0	 0.0	 0.0; % PEL
	699	 1.805	 14.025	 41.0	 -41.0	 1.07411	 5.0	 1	 82	 1.805	 0.0	 0.0	 0.0	 0.0	 0.0	 0.0	 0.0	 0.0	 0.0	 0.0	 0.0; % PEL
	712	 0.57	 3.404	 59.0	 -59.0	 1.10251	 1.0	 1	 117	 0.57	 0.0	 0.0	 0.0	 0.0	 0.0	 0.0	 0.0	 0.0	 0.0	 0.0	 0.0; % PEL
	730	 79.0	 -17.934	 40.0	 -40.0	 1.083	 8.0	 1	 79	 3.28	 0.0	 0.0	 0.0	 0.0	 0.0	 0.0	 0.0	 0.0	 0.0	 0.0	 0.0; % NG
	732	 0.525	 -1.151	 48.0	 -48.0	 1.07043	 1.0	 1	 95	 0.525	 0.0	 0.0	 0.0	 0.0	 0.0	 0.0	 0.0	 0.0	 0.0	 0.0	 0.0; % PEL
	735	 221.268	 -6.272	 121.0	 -121.0	 1.12	 5.0	 1	 241	 1.95	 0.0	 0.0	 0.0	 0.0	 0.0	 0.0	 0.0	 0.0	 0.0	 0.0	 0.0; % NG
	740	 132.988	 27.239	 97.0	 -97.0	 1.1156	 5.0	 1	 194	 1.9	 0.0	 0.0	 0.0	 0.0	 0.0	 0.0	 0.0	 0.0	 0.0	 0.0	 0.0; % NG
	744	 230.59	 -15.678	 164.0	 -164.0	 1.12	 161.0	 1	 328	 63.65	 0.0	 0.0	 0.0	 0.0	 0.0	 0.0	 0.0	 0.0	 0.0	 0.0	 0.0; % NG
	754	 5.0	 2.162	 75.0	 -75.0	 1.08643	 54.0	 1	 150	 5.0	 0.0	 0.0	 0.0	 0.0	 0.0	 0.0	 0.0	 0.0	 0.0	 0.0	 0.0; % NG
	755	 42.5	 30.091	 127.0	 -127.0	 1.07927	 110.0	 1	 253	 42.5	 0.0	 0.0	 0.0	 0.0	 0.0	 0.0	 0.0	 0.0	 0.0	 0.0	 0.0; % NG
	760	 148.494	 -6.15	 95.0	 -95.0	 1.12	 4.0	 1	 190	 1.475	 0.0	 0.0	 0.0	 0.0	 0.0	 0.0	 0.0	 0.0	 0.0	 0.0	 0.0; % COW
	766	 1.0	 -1.188	 15.0	 -15.0	 1.10176	 3.0	 1	 29	 1.0	 0.0	 0.0	 0.0	 0.0	 0.0	 0.0	 0.0	 0.0	 0.0	 0.0	 0.0; % PEL
	784	 0.335	 6.857	 50.0	 -50.0	 1.08816	 1.0	 1	 99	 0.335	 0.0	 0.0	 0.0	 0.0	 0.0	 0.0	 0.0	 0.0	 0.0	 0.0	 0.0; % PEL
	790	 82.0	 22.786	 41.0	 -41.0	 1.08963	 60.0	 1	 82	 23.655	 0.0	 0.0	 0.0	 0.0	 0.0	 0.0	 0.0	 0.0	 0.0	 0.0	 0.0; % NG
	795	 0.9	 6.107	 27.0	 -27.0	 1.08955	 2.0	 1	 54	 0.9	 0.0	 0.0	 0.0	 0.0	 0.0	 0.0	 0.0	 0.0	 0.0	 0.0	 0.0; % PEL
	798	 1.42	 10.323	 24.0	 -24.0	 1.10015	 4.0	 1	 48	 1.42	 0.0	 0.0	 0.0	 0.0	 0.0	 0.0	 0.0	 0.0	 0.0	 0.0	 0.0; % PEL
	814	 209.0	 6.916	 105.0	 -105.0	 1.12	 54.0	 1	 209	 21.335	 0.0	 0.0	 0.0	 0.0	 0.0	 0.0	 0.0	 0.0	 0.0	 0.0	 0.0; % NG
	834	 11.5	 5.365	 83.0	 -60.0	 1.07133	 110.0	 1	 83	 11.5	 0.0	 0.0	 0.0	 0.0	 0.0	 0.0	 0.0	 0.0	 0.0	 0.0	 0.0; % NG
	878	 1.42	 8.992	 26.0	 -26.0	 1.10664	 4.0	 1	 51	 1.42	 0.0	 0.0	 0.0	 0.0	 0.0	 0.0	 0.0	 0.0	 0.0	 0.0	 0.0; % PEL
	884	 1.185	 7.748	 64.0	 -64.0	 1.09941	 3.0	 1	 128	 1.185	 0.0	 0.0	 0.0	 0.0	 0.0	 0.0	 0.0	 0.0	 0.0	 0.0	 0.0; % PEL
	892	 15.14	 39.907	 59.0	 -59.0	 1.09163	 38.0	 1	 118	 15.14	 0.0	 0.0	 0.0	 0.0	 0.0	 0.0	 0.0	 0.0	 0.0	 0.0	 0.0; % PEL
	895	 141.0	 12.074	 71.0	 -71.0	 1.09961	 11.0	 1	 141	 4.255	 0.0	 0.0	 0.0	 0.0	 0.0	 0.0	 0.0	 0.0	 0.0	 0.0	 0.0; % NG
	901	 88.0	 13.987	 44.0	 -44.0	 1.11139	 4.0	 1	 88	 1.75	 0.0	 0.0	 0.0	 0.0	 0.0	 0.0	 0.0	 0.0	 0.0	 0.0	 0.0; % NG
	910	 42.0	 9.603	 21.0	 -21.0	 1.11365	 6.0	 1	 42	 2.175	 0.0	 0.0	 0.0	 0.0	 0.0	 0.0	 0.0	 0.0	 0.0	 0.0	 0.0; % NG
	911	 322.144	 -156.089	 611.0	 -611.0	 1.05398	 415.0	 1	 1222	 140.0	 0.0	 0.0	 0.0	 0.0	 0.0	 0.0	 0.0	 0.0	 0.0	 0.0	 0.0; % COW
	912	 140.0	 30.606	 224.0	 -201.0	 1.08512	 415.0	 1	 402	 140.0	 0.0	 0.0	 0.0	 0.0	 0.0	 0.0	 0.0	 0.0	 0.0	 0.0	 0.0; % NG
	914	 69.0	 15.046	 35.0	 -35.0	 1.10138	 19.0	 1	 69	 7.565	 0.0	 0.0	 0.0	 0.0	 0.0	 0.0	 0.0	 0.0	 0.0	 0.0	 0.0; % COW
	917	 0.995	 4.669	 36.0	 -36.0	 1.10303	 3.0	 1	 72	 0.995	 0.0	 0.0	 0.0	 0.0	 0.0	 0.0	 0.0	 0.0	 0.0	 0.0	 0.0; % PEL
	919	 10.405	 20.956	 41.0	 -41.0	 1.0863	 26.0	 1	 82	 10.405	 0.0	 0.0	 0.0	 0.0	 0.0	 0.0	 0.0	 0.0	 0.0	 0.0	 0.0; % PEL
	920	 0.945	 8.357	 38.0	 -38.0	 1.09221	 2.0	 1	 76	 0.945	 0.0	 0.0	 0.0	 0.0	 0.0	 0.0	 0.0	 0.0	 0.0	 0.0	 0.0; % PEL
	929	 30.27	 12.49	 61.0	 -61.0	 1.10398	 77.0	 1	 122	 30.27	 0.0	 0.0	 0.0	 0.0	 0.0	 0.0	 0.0	 0.0	 0.0	 0.0	 0.0; % NG
	959	 1.185	 5.613	 45.0	 -45.0	 1.07138	 3.0	 1	 89	 1.185	 0.0	 0.0	 0.0	 0.0	 0.0	 0.0	 0.0	 0.0	 0.0	 0.0	 0.0; % PEL
	968	 0.335	 5.746	 36.0	 -36.0	 1.07508	 1.0	 1	 71	 0.335	 0.0	 0.0	 0.0	 0.0	 0.0	 0.0	 0.0	 0.0	 0.0	 0.0	 0.0; % PEL
	993	 76.0	 -26.979	 38.0	 -38.0	 1.0842	 5.0	 1	 76	 1.89	 0.0	 0.0	 0.0	 0.0	 0.0	 0.0	 0.0	 0.0	 0.0	 0.0	 0.0; % NG
	994	 0.945	 32.474	 33.0	 -33.0	 1.08422	 2.0	 1	 65	 0.945	 0.0	 0.0	 0.0	 0.0	 0.0	 0.0	 0.0	 0.0	 0.0	 0.0	 0.0; % PEL
	995	 10.0	 -81.999	 82.0	 -82.0	 1.05572	 60.0	 1	 163	 10.0	 0.0	 0.0	 0.0	 0.0	 0.0	 0.0	 0.0	 0.0	 0.0	 0.0	 0.0; % NG
	996	 10.0	 2.462	 54.0	 -54.0	 1.10193	 60.0	 1	 108	 10.0	 0.0	 0.0	 0.0	 0.0	 0.0	 0.0	 0.0	 0.0	 0.0	 0.0	 0.0; % NG
	997	 262.0	 48.699	 131.0	 -131.0	 1.11636	 60.0	 1	 262	 10.0	 0.0	 0.0	 0.0	 0.0	 0.0	 0.0	 0.0	 0.0	 0.0	 0.0	 0.0; % NG
	1004	 2.035	 -37.361	 81.0	 -81.0	 1.08857	 5.0	 1	 161	 2.035	 0.0	 0.0	 0.0	 0.0	 0.0	 0.0	 0.0	 0.0	 0.0	 0.0	 0.0; % PEL
	1024	 0.05	 -0.686	 20.0	 -20.0	 1.07519	 0.0	 1	 40	 0.05	 0.0	 0.0	 0.0	 0.0	 0.0	 0.0	 0.0	 0.0	 0.0	 0.0	 0.0; % PEL
	1027	 11.83	 13.738	 76.0	 -76.0	 1.10735	 30.0	 1	 151	 11.83	 0.0	 0.0	 0.0	 0.0	 0.0	 0.0	 0.0	 0.0	 0.0	 0.0	 0.0; % PEL
	1028	 1.42	 5.471	 15.0	 -15.0	 1.10788	 4.0	 1	 30	 1.42	 0.0	 0.0	 0.0	 0.0	 0.0	 0.0	 0.0	 0.0	 0.0	 0.0	 0.0; % NG
	1029	 11.83	 19.102	 43.0	 -43.0	 1.11178	 30.0	 1	 86	 11.83	 0.0	 0.0	 0.0	 0.0	 0.0	 0.0	 0.0	 0.0	 0.0	 0.0	 0.0; % PEL
	1053	 28.385	 33.891	 53.0	 -44.0	 1.11048	 72.0	 1	 87	 28.385	 0.0	 0.0	 0.0	 0.0	 0.0	 0.0	 0.0	 0.0	 0.0	 0.0	 0.0; % COW
	1054	 14.195	 29.952	 64.0	 -64.0	 1.06835	 36.0	 1	 128	 14.195	 0.0	 0.0	 0.0	 0.0	 0.0	 0.0	 0.0	 0.0	 0.0	 0.0	 0.0; % NG
	1105	 104.0	 1.408	 52.0	 -52.0	 1.12	 10.0	 1	 104	 3.785	 0.0	 0.0	 0.0	 0.0	 0.0	 0.0	 0.0	 0.0	 0.0	 0.0	 0.0; % NG
	1106	 10.88	 34.283	 58.0	 -58.0	 1.12	 28.0	 1	 115	 10.88	 0.0	 0.0	 0.0	 0.0	 0.0	 0.0	 0.0	 0.0	 0.0	 0.0	 0.0; % NG
	1107	 5.015	 17.454	 64.0	 -64.0	 1.09188	 13.0	 1	 128	 5.015	 0.0	 0.0	 0.0	 0.0	 0.0	 0.0	 0.0	 0.0	 0.0	 0.0	 0.0; % NG
	1138	 232.0	 32.916	 116.0	 -116.0	 1.11079	 54.0	 1	 232	 21.29	 0.0	 0.0	 0.0	 0.0	 0.0	 0.0	 0.0	 0.0	 0.0	 0.0	 0.0; % NG
	1140	 264.0	 64.068	 199.0	 -132.0	 1.11247	 252.0	 1	 264	 35.0	 0.0	 0.0	 0.0	 0.0	 0.0	 0.0	 0.0	 0.0	 0.0	 0.0	 0.0; % COW
	1141	 35.0	 -88.994	 190.0	 -89.0	 1.05287	 251.0	 1	 157	 35.0	 0.0	 0.0	 0.0	 0.0	 0.0	 0.0	 0.0	 0.0	 0.0	 0.0	 0.0; % NG
	1175	 17.975	 27.756	 47.0	 -47.0	 1.06973	 45.0	 1	 93	 17.975	 0.0	 0.0	 0.0	 0.0	 0.0	 0.0	 0.0	 0.0	 0.0	 0.0	 0.0; % COW
	1182	 20.0	 94.389	 125.0	 -50.0	 1.11076	 133.0	 1	 85	 20.0	 0.0	 0.0	 0.0	 0.0	 0.0	 0.0	 0.0	 0.0	 0.0	 0.0	 0.0; % NG
	1183	 126.0	 40.677	 125.0	 -63.0	 1.1145	 133.0	 1	 126	 20.0	 0.0	 0.0	 0.0	 0.0	 0.0	 0.0	 0.0	 0.0	 0.0	 0.0	 0.0; % NG
	1184	 283.0	 -60.42	 142.0	 -142.0	 1.06578	 133.0	 1	 283	 20.0	 0.0	 0.0	 0.0	 0.0	 0.0	 0.0	 0.0	 0.0	 0.0	 0.0	 0.0; % COW
	1191	 143.927	 6.779	 129.0	 -74.0	 1.05309	 128.0	 1	 148	 50.615	 0.0	 0.0	 0.0	 0.0	 0.0	 0.0	 0.0	 0.0	 0.0	 0.0	 0.0; % COW
	1192	 185.0	 68.23	 125.0	 -93.0	 1.10689	 123.0	 1	 185	 40.0	 0.0	 0.0	 0.0	 0.0	 0.0	 0.0	 0.0	 0.0	 0.0	 0.0	 0.0; % NG
	1201	 169.0	 40.219	 90.0	 -85.0	 1.12	 120.0	 1	 169	 47.305	 0.0	 0.0	 0.0	 0.0	 0.0	 0.0	 0.0	 0.0	 0.0	 0.0	 0.0; % NG
	1202	 282.0	 28.341	 141.0	 -141.0	 1.12	 120.0	 1	 282	 47.305	 0.0	 0.0	 0.0	 0.0	 0.0	 0.0	 0.0	 0.0	 0.0	 0.0	 0.0; % NG
	1203	 47.305	 39.868	 90.0	 -61.0	 1.1085	 120.0	 1	 122	 47.305	 0.0	 0.0	 0.0	 0.0	 0.0	 0.0	 0.0	 0.0	 0.0	 0.0	 0.0; % NG
	1232	 97.292	 68.0	 68.0	 -68.0	 1.08635	 62.0	 1	 136	 24.6	 0.0	 0.0	 0.0	 0.0	 0.0	 0.0	 0.0	 0.0	 0.0	 0.0	 0.0; % NG
	1233	 7.095	 -64.984	 137.0	 -137.0	 1.07738	 18.0	 1	 274	 7.095	 0.0	 0.0	 0.0	 0.0	 0.0	 0.0	 0.0	 0.0	 0.0	 0.0	 0.0; % NG
	1244	 8.985	 16.873	 49.0	 -49.0	 1.08659	 23.0	 1	 98	 8.985	 0.0	 0.0	 0.0	 0.0	 0.0	 0.0	 0.0	 0.0	 0.0	 0.0	 0.0; % NG
	1247	 7.565	 5.72	 44.0	 -44.0	 1.09082	 19.0	 1	 88	 7.565	 0.0	 0.0	 0.0	 0.0	 0.0	 0.0	 0.0	 0.0	 0.0	 0.0	 0.0; % NG
	1250	 93.665	 70.497	 151.0	 -148.0	 1.11321	 237.0	 1	 296	 93.665	 0.0	 0.0	 0.0	 0.0	 0.0	 0.0	 0.0	 0.0	 0.0	 0.0	 0.0; % NG
	1268	 0.24	 13.224	 63.0	 -63.0	 1.08124	 1.0	 1	 125	 0.24	 0.0	 0.0	 0.0	 0.0	 0.0	 0.0	 0.0	 0.0	 0.0	 0.0	 0.0; % PEL
	1316	 0.475	 7.747	 8.0	 -8.0	 1.07295	 1.0	 1	 16	 0.475	 0.0	 0.0	 0.0	 0.0	 0.0	 0.0	 0.0	 0.0	 0.0	 0.0	 0.0; % PEL
	1325	 0.66	 3.22	 34.0	 -34.0	 1.1079	 2.0	 1	 67	 0.66	 0.0	 0.0	 0.0	 0.0	 0.0	 0.0	 0.0	 0.0	 0.0	 0.0	 0.0; % PEL
	1349	 0.71	 2.933	 18.0	 -18.0	 1.04656	 2.0	 1	 36	 0.71	 0.0	 0.0	 0.0	 0.0	 0.0	 0.0	 0.0	 0.0	 0.0	 0.0	 0.0; % PEL
	1356	 0.475	 20.712	 96.0	 -96.0	 1.08811	 1.0	 1	 192	 0.475	 0.0	 0.0	 0.0	 0.0	 0.0	 0.0	 0.0	 0.0	 0.0	 0.0	 0.0; % PEL
	1359	 0.38	 9.733	 28.0	 -28.0	 1.081	 1.0	 1	 55	 0.38	 0.0	 0.0	 0.0	 0.0	 0.0	 0.0	 0.0	 0.0	 0.0	 0.0	 0.0; % PEL
	1393	 6.055	 7.276	 36.0	 -36.0	 1.0747	 15.0	 1	 71	 6.055	 0.0	 0.0	 0.0	 0.0	 0.0	 0.0	 0.0	 0.0	 0.0	 0.0	 0.0; % NG
	1403	 85.0	 25.496	 43.0	 -43.0	 1.11395	 5.0	 1	 85	 2.035	 0.0	 0.0	 0.0	 0.0	 0.0	 0.0	 0.0	 0.0	 0.0	 0.0	 0.0; % NG
	1416	 40.0	 34.812	 180.0	 -72.0	 1.08586	 246.0	 1	 143	 40.0	 0.0	 0.0	 0.0	 0.0	 0.0	 0.0	 0.0	 0.0	 0.0	 0.0	 0.0; % NG
	1417	 40.0	 33.706	 255.0	 -255.0	 1.1039	 123.0	 1	 510	 40.0	 0.0	 0.0	 0.0	 0.0	 0.0	 0.0	 0.0	 0.0	 0.0	 0.0	 0.0; % COW
	1418	 2.5	 44.447	 90.0	 -75.0	 1.10167	 123.0	 1	 149	 2.5	 0.0	 0.0	 0.0	 0.0	 0.0	 0.0	 0.0	 0.0	 0.0	 0.0	 0.0; % PEL
	1426	 97.0	 37.649	 68.0	 -49.0	 1.11162	 106.0	 1	 97	 10.0	 0.0	 0.0	 0.0	 0.0	 0.0	 0.0	 0.0	 0.0	 0.0	 0.0	 0.0; % COW
	1429	 73.557	 5.36	 55.0	 -55.0	 1.10759	 0.0	 1	 109	 0.095	 0.0	 0.0	 0.0	 0.0	 0.0	 0.0	 0.0	 0.0	 0.0	 0.0	 0.0; % NG
	1469	 0.285	 -0.204	 80.0	 -80.0	 1.06928	 1.0	 1	 160	 0.285	 0.0	 0.0	 0.0	 0.0	 0.0	 0.0	 0.0	 0.0	 0.0	 0.0	 0.0; % PEL
	1475	 0.995	 6.139	 49.0	 -49.0	 1.08561	 3.0	 1	 98	 0.995	 0.0	 0.0	 0.0	 0.0	 0.0	 0.0	 0.0	 0.0	 0.0	 0.0	 0.0; % PEL
	1504	 377.0	 -13.305	 189.0	 -189.0	 1.11271	 37.0	 1	 377	 14.805	 0.0	 0.0	 0.0	 0.0	 0.0	 0.0	 0.0	 0.0	 0.0	 0.0	 0.0; % NG
	1505	 166.0	 18.931	 83.0	 -83.0	 1.1195	 59.0	 1	 166	 23.18	 0.0	 0.0	 0.0	 0.0	 0.0	 0.0	 0.0	 0.0	 0.0	 0.0	 0.0; % NG
	1514	 79.0	 10.138	 40.0	 -40.0	 1.08758	 3.0	 1	 79	 1.09	 0.0	 0.0	 0.0	 0.0	 0.0	 0.0	 0.0	 0.0	 0.0	 0.0	 0.0; % NG
	1534	 0.145	 4.311	 38.0	 -38.0	 1.11257	 0.0	 1	 75	 0.145	 0.0	 0.0	 0.0	 0.0	 0.0	 0.0	 0.0	 0.0	 0.0	 0.0	 0.0; % NG
	1536	 425.842	 -48.16	 272.0	 -272.0	 1.09716	 251.0	 1	 544	 80.0	 0.0	 0.0	 0.0	 0.0	 0.0	 0.0	 0.0	 0.0	 0.0	 0.0	 0.0; % NG
	1537	 80.0	 45.583	 246.0	 -246.0	 1.11275	 255.0	 1	 492	 80.0	 0.0	 0.0	 0.0	 0.0	 0.0	 0.0	 0.0	 0.0	 0.0	 0.0	 0.0; % NG
	1538	 35.0	 15.296	 235.0	 -235.0	 1.09582	 255.0	 1	 469	 35.0	 0.0	 0.0	 0.0	 0.0	 0.0	 0.0	 0.0	 0.0	 0.0	 0.0	 0.0; % NG
	1542	 145.0	 -35.928	 73.0	 -73.0	 1.12	 11.0	 1	 145	 4.255	 0.0	 0.0	 0.0	 0.0	 0.0	 0.0	 0.0	 0.0	 0.0	 0.0	 0.0; % NG
	1543	 66.0	 8.891	 33.0	 -33.0	 1.10658	 1.0	 1	 66	 0.57	 0.0	 0.0	 0.0	 0.0	 0.0	 0.0	 0.0	 0.0	 0.0	 0.0	 0.0; % NG
	1550	 0.85	 5.982	 37.0	 -37.0	 1.1011	 2.0	 1	 73	 0.85	 0.0	 0.0	 0.0	 0.0	 0.0	 0.0	 0.0	 0.0	 0.0	 0.0	 0.0; % PEL
	1566	 26.015	 63.0	 63.0	 -63.0	 1.08275	 66.0	 1	 126	 26.015	 0.0	 0.0	 0.0	 0.0	 0.0	 0.0	 0.0	 0.0	 0.0	 0.0	 0.0; % NG
	1587	 30.275	 18.585	 100.0	 -100.0	 1.08546	 77.0	 1	 199	 30.275	 0.0	 0.0	 0.0	 0.0	 0.0	 0.0	 0.0	 0.0	 0.0	 0.0	 0.0; % NG
	1600	 132.0	 14.435	 66.0	 -66.0	 1.12	 21.0	 1	 132	 8.28	 0.0	 0.0	 0.0	 0.0	 0.0	 0.0	 0.0	 0.0	 0.0	 0.0	 0.0; % NG
	1602	 20.0	 17.847	 91.0	 -91.0	 1.09577	 144.0	 1	 181	 20.0	 0.0	 0.0	 0.0	 0.0	 0.0	 0.0	 0.0	 0.0	 0.0	 0.0	 0.0; % COW
	1603	 90.0	 70.888	 90.0	 -73.2	 1.12	 144.0	 1	 90	 20.0	 0.0	 0.0	 0.0	 0.0	 0.0	 0.0	 0.0	 0.0	 0.0	 0.0	 0.0; % NG
	1609	 0.145	 9.21	 63.0	 -63.0	 1.0928	 0.0	 1	 126	 0.145	 0.0	 0.0	 0.0	 0.0	 0.0	 0.0	 0.0	 0.0	 0.0	 0.0	 0.0; % PEL
	1617	 0.95	 -11.066	 20.4	 -20.4	 1.10328	 2.0	 1	 35	 0.95	 0.0	 0.0	 0.0	 0.0	 0.0	 0.0	 0.0	 0.0	 0.0	 0.0	 0.0; % PEL
	1620	 0.76	 -2.237	 30.0	 -30.0	 1.11216	 2.0	 1	 60	 0.76	 0.0	 0.0	 0.0	 0.0	 0.0	 0.0	 0.0	 0.0	 0.0	 0.0	 0.0; % PEL
...
];

%% generator cost data
%	2	startup	shutdown	n	c(n-1)	...	c0
mpc.gencost = [
	2	 0.0	 0.0	 3	   0.000000	   1.255509	   0.000000; % NG
	2	 0.0	 0.0	 3	   0.000000	   0.644570	   0.000000; % COW
	2	 0.0	 0.0	 3	   0.000000	   0.454728	   0.000000; % COW
	2	 0.0	 0.0	 3	   0.000000	   0.740303	   0.000000; % COW
	2	 0.0	 0.0	 3	   0.000000	   0.496491	   0.000000; % COW
	2	 0.0	 0.0	 3	   0.000000	   0.822322	   0.000000; % COW
	2	 0.0	 0.0	 3	   0.000000	   0.681252	   0.000000; % COW
	2	 0.0	 0.0	 3	   0.000000	   1.259746	   0.000000; % NG
	2	 0.0	 0.0	 3	   0.000000	   1.226133	   0.000000; % NG
	2	 0.0	 0.0	 3	   0.000000	   1.072688	   0.000000; % NG
	2	 0.0	 0.0	 3	   0.000000	   0.909353	   0.000000; % NG
	2	 0.0	 0.0	 3	   0.000000	   1.085344	   0.000000; % NG
	2	 0.0	 0.0	 3	   0.000000	   1.328477	   0.000000; % NG
	2	 0.0	 0.0	 3	   0.000000	   0.916383	   0.000000; % NG
	2	 0.0	 0.0	 3	   0.000000	   0.989139	   0.000000; % COW
	2	 0.0	 0.0	 3	   0.000000	   0.664160	   0.000000; % COW
	2	 0.0	 0.0	 3	   0.000000	   0.648898	   0.000000; % NG
	2	 0.0	 0.0	 3	   0.000000	   1.057449	   0.000000; % NG
	2	 0.0	 0.0	 3	   0.000000	   1.140661	   0.000000; % COW
	2	 0.0	 0.0	 3	   0.000000	   0.617518	   0.000000; % COW
	2	 0.0	 0.0	 3	   0.000000	   1.067535	   0.000000; % NG
	2	 0.0	 0.0	 3	   0.000000	   0.836423	   0.000000; % NG
	2	 0.0	 0.0	 3	   0.000000	   1.054037	   0.000000; % NG
	2	 0.0	 0.0	 3	   0.000000	   1.170877	   0.000000; % NG
	2	 0.0	 0.0	 3	   0.000000	   0.874465	   0.000000; % NG
	2	 0.0	 0.0	 3	   0.000000	   0.921666	   0.000000; % COW
	2	 0.0	 0.0	 3	   0.000000	   0.856603	   0.000000; % NG
	2	 0.0	 0.0	 3	   0.000000	   0.998180	   0.000000; % NG
	2	 0.0	 0.0	 3	   0.000000	   0.985618	   0.000000; % NG
	2	 0.0	 0.0	 3	   0.000000	   1.340401	   0.000000; % NG
	2	 0.0	 0.0	 3	   0.000000	   0.695656	   0.000000; % COW
	2	 0.0	 0.0	 3	   0.000000	   0.571919	   0.000000; % COW
	2	 0.0	 0.0	 3	   0.000000	   0.759235	   0.000000; % COW
	2	 0.0	 0.0	 3	   0.000000	   0.960318	   0.000000; % COW
	2	 0.0	 0.0	 3	   0.000000	   1.120019	   0.000000; % COW
	2	 0.0	 0.0	 3	   0.000000	   1.242976	   0.000000; % NG
	2	 0.0	 0.0	 3	   0.000000	   0.501435	   0.000000; % COW
	2	 0.0	 0.0	 3	   0.000000	   1.138208	   0.000000; % NG
	2	 0.0	 0.0	 3	   0.000000	   0.000000	   0.000000; % SYNC
	2	 0.0	 0.0	 3	   0.000000	   1.138797	   0.000000; % NG
	2	 0.0	 0.0	 3	   0.000000	   0.988773	   0.000000; % COW
	2	 0.0	 0.0	 3	   0.000000	   0.000000	   0.000000; % SYNC
	2	 0.0	 0.0	 3	   0.000000	   0.000000	   0.000000; % SYNC
	2	 0.0	 0.0	 3	   0.000000	   0.000000	   0.000000; % SYNC
	2	 0.0	 0.0	 3	   0.000000	   1.047343	   0.000000; % NG
	2	 0.0	 0.0	 3	   0.000000	   6.663421	   0.000000; % PEL
	2	 0.0	 0.0	 3	   0.000000	   6.749904	   0.000000; % PEL
	2	 0.0	 0.0	 3	   0.000000	   1.190314	   0.000000; % NG
	2	 0.0	 0.0	 3	   0.000000	   6.632513	   0.000000; % PEL
	2	 0.0	 0.0	 3	   0.000000	   6.890337	   0.000000; % PEL
	2	 0.0	 0.0	 3	   0.000000	   6.653186	   0.000000; % PEL
	2	 0.0	 0.0	 3	   0.000000	   7.330115	   0.000000; % PEL
	2	 0.0	 0.0	 3	   0.000000	   1.035138	   0.000000; % NG
	2	 0.0	 0.0	 3	   0.000000	   6.364063	   0.000000; % PEL
	2	 0.0	 0.0	 3	   0.000000	   1.225907	   0.000000; % NG
	2	 0.0	 0.0	 3	   0.000000	   6.791330	   0.000000; % PEL
	2	 0.0	 0.0	 3	   0.000000	   7.464501	   0.000000; % PEL
	2	 0.0	 0.0	 3	   0.000000	   1.402426	   0.000000; % NG
	2	 0.0	 0.0	 3	   0.000000	   7.353580	   0.000000; % PEL
	2	 0.0	 0.0	 3	   0.000000	   1.585118	   0.000000; % NG
	2	 0.0	 0.0	 3	   0.000000	   1.067548	   0.000000; % NG
	2	 0.0	 0.0	 3	   0.000000	   1.096703	   0.000000; % NG
	2	 0.0	 0.0	 3	   0.000000	   1.189530	   0.000000; % NG
	2	 0.0	 0.0	 3	   0.000000	   6.948292	   0.000000; % PEL
	2	 0.0	 0.0	 3	   0.000000	   1.072457	   0.000000; % NG
	2	 0.0	 0.0	 3	   0.000000	   1.214393	   0.000000; % NG
	2	 0.0	 0.0	 3	   0.000000	   1.054221	   0.000000; % NG
	2	 0.0	 0.0	 3	   0.000000	   6.490835	   0.000000; % PEL
	2	 0.0	 0.0	 3	   0.000000	   1.169982	   0.000000; % NG
	2	 0.0	 0.0	 3	   0.000000	   6.676242	   0.000000; % PEL
	2	 0.0	 0.0	 3	   0.000000	   0.928927	   0.000000; % NG
	2	 0.0	 0.0	 3	   0.000000	   1.236202	   0.000000; % NG
	2	 0.0	 0.0	 3	   0.000000	   1.063158	   0.000000; % NG
	2	 0.0	 0.0	 3	   0.000000	   6.738457	   0.000000; % PEL
	2	 0.0	 0.0	 3	   0.000000	   6.565338	   0.000000; % PEL
	2	 0.0	 0.0	 3	   0.000000	   7.474059	   0.000000; % PEL
	2	 0.0	 0.0	 3	   0.000000	   7.067467	   0.000000; % PEL
	2	 0.0	 0.0	 3	   0.000000	   7.100539	   0.000000; % PEL
	2	 0.0	 0.0	 3	   0.000000	   6.697911	   0.000000; % PEL
	2	 0.0	 0.0	 3	   0.000000	   1.107584	   0.000000; % COW
	2	 0.0	 0.0	 3	   0.000000	   1.335926	   0.000000; % NG
	2	 0.0	 0.0	 3	   0.000000	   1.109719	   0.000000; % NG
	2	 0.0	 0.0	 3	   0.000000	   1.178803	   0.000000; % NG
	2	 0.0	 0.0	 3	   0.000000	   6.669498	   0.000000; % PEL
	2	 0.0	 0.0	 3	   0.000000	   6.720740	   0.000000; % PEL
	2	 0.0	 0.0	 3	   0.000000	   0.927859	   0.000000; % NG
	2	 0.0	 0.0	 3	   0.000000	   7.493621	   0.000000; % PEL
	2	 0.0	 0.0	 3	   0.000000	   6.378055	   0.000000; % PEL
	2	 0.0	 0.0	 3	   0.000000	   6.692402	   0.000000; % PEL
	2	 0.0	 0.0	 3	   0.000000	   0.782519	   0.000000; % NG
	2	 0.0	 0.0	 3	   0.000000	   6.977214	   0.000000; % PEL
	2	 0.0	 0.0	 3	   0.000000	   1.028971	   0.000000; % NG
	2	 0.0	 0.0	 3	   0.000000	   0.186735	   0.000000; % COW
	2	 0.0	 0.0	 3	   0.000000	   7.102353	   0.000000; % PEL
	2	 0.0	 0.0	 3	   0.000000	   1.070923	   0.000000; % NG
	2	 0.0	 0.0	 3	   0.000000	   0.733748	   0.000000; % NG
	2	 0.0	 0.0	 3	   0.000000	   0.913526	   0.000000; % NG
	2	 0.0	 0.0	 3	   0.000000	   7.241566	   0.000000; % PEL
	2	 0.0	 0.0	 3	   0.000000	   0.880057	   0.000000; % NG
	2	 0.0	 0.0	 3	   0.000000	   7.238194	   0.000000; % PEL
	2	 0.0	 0.0	 3	   0.000000	   6.119442	   0.000000; % PEL
	2	 0.0	 0.0	 3	   0.000000	   0.753138	   0.000000; % NG
	2	 0.0	 0.0	 3	   0.000000	   7.048545	   0.000000; % PEL
	2	 0.0	 0.0	 3	   0.000000	   6.681465	   0.000000; % PEL
	2	 0.0	 0.0	 3	   0.000000	   6.343796	   0.000000; % PEL
	2	 0.0	 0.0	 3	   0.000000	   0.653012	   0.000000; % NG
	2	 0.0	 0.0	 3	   0.000000	   6.614213	   0.000000; % PEL
	2	 0.0	 0.0	 3	   0.000000	   0.872643	   0.000000; % NG
	2	 0.0	 0.0	 3	   0.000000	   0.889731	   0.000000; % NG
	2	 0.0	 0.0	 3	   0.000000	   0.861033	   0.000000; % NG
	2	 0.0	 0.0	 3	   0.000000	   1.213429	   0.000000; % NG
	2	 0.0	 0.0	 3	   0.000000	   1.326759	   0.000000; % NG
	2	 0.0	 0.0	 3	   0.000000	   0.964148	   0.000000; % COW
	2	 0.0	 0.0	 3	   0.000000	   7.231533	   0.000000; % PEL
	2	 0.0	 0.0	 3	   0.000000	   7.392506	   0.000000; % PEL
	2	 0.0	 0.0	 3	   0.000000	   1.035355	   0.000000; % NG
	2	 0.0	 0.0	 3	   0.000000	   6.386016	   0.000000; % PEL
	2	 0.0	 0.0	 3	   0.000000	   6.893616	   0.000000; % PEL
	2	 0.0	 0.0	 3	   0.000000	   0.806780	   0.000000; % NG
	2	 0.0	 0.0	 3	   0.000000	   1.357950	   0.000000; % NG
	2	 0.0	 0.0	 3	   0.000000	   7.185058	   0.000000; % PEL
	2	 0.0	 0.0	 3	   0.000000	   6.818036	   0.000000; % PEL
	2	 0.0	 0.0	 3	   0.000000	   7.542026	   0.000000; % PEL
	2	 0.0	 0.0	 3	   0.000000	   1.010063	   0.000000; % NG
	2	 0.0	 0.0	 3	   0.000000	   0.935938	   0.000000; % NG
	2	 0.0	 0.0	 3	   0.000000	   0.766866	   0.000000; % NG
	2	 0.0	 0.0	 3	   0.000000	   0.904359	   0.000000; % COW
	2	 0.0	 0.0	 3	   0.000000	   1.350355	   0.000000; % NG
	2	 0.0	 0.0	 3	   0.000000	   0.373885	   0.000000; % COW
	2	 0.0	 0.0	 3	   0.000000	   6.644226	   0.000000; % PEL
	2	 0.0	 0.0	 3	   0.000000	   6.933824	   0.000000; % PEL
	2	 0.0	 0.0	 3	   0.000000	   7.109836	   0.000000; % PEL
	2	 0.0	 0.0	 3	   0.000000	   1.122038	   0.000000; % NG
	2	 0.0	 0.0	 3	   0.000000	   6.732345	   0.000000; % PEL
	2	 0.0	 0.0	 3	   0.000000	   7.036676	   0.000000; % PEL
	2	 0.0	 0.0	 3	   0.000000	   0.941603	   0.000000; % NG
	2	 0.0	 0.0	 3	   0.000000	   6.768020	   0.000000; % PEL
	2	 0.0	 0.0	 3	   0.000000	   1.009215	   0.000000; % NG
	2	 0.0	 0.0	 3	   0.000000	   1.411428	   0.000000; % NG
	2	 0.0	 0.0	 3	   0.000000	   1.022426	   0.000000; % NG
	2	 0.0	 0.0	 3	   0.000000	   6.874139	   0.000000; % PEL
	2	 0.0	 0.0	 3	   0.000000	   7.179099	   0.000000; % PEL
	2	 0.0	 0.0	 3	   0.000000	   7.437560	   0.000000; % PEL
	2	 0.0	 0.0	 3	   0.000000	   1.342661	   0.000000; % NG
	2	 0.0	 0.0	 3	   0.000000	   6.938862	   0.000000; % PEL
	2	 0.0	 0.0	 3	   0.000000	   1.141450	   0.000000; % COW
	2	 0.0	 0.0	 3	   0.000000	   1.264609	   0.000000; % NG
	2	 0.0	 0.0	 3	   0.000000	   0.999185	   0.000000; % NG
	2	 0.0	 0.0	 3	   0.000000	   1.099014	   0.000000; % NG
	2	 0.0	 0.0	 3	   0.000000	   1.181623	   0.000000; % NG
	2	 0.0	 0.0	 3	   0.000000	   1.033721	   0.000000; % NG
	2	 0.0	 0.0	 3	   0.000000	   0.675822	   0.000000; % COW
	2	 0.0	 0.0	 3	   0.000000	   1.309313	   0.000000; % NG
	2	 0.0	 0.0	 3	   0.000000	   1.143764	   0.000000; % COW
	2	 0.0	 0.0	 3	   0.000000	   1.242753	   0.000000; % NG
	2	 0.0	 0.0	 3	   0.000000	   1.026329	   0.000000; % NG
	2	 0.0	 0.0	 3	   0.000000	   0.624816	   0.000000; % COW
	2	 0.0	 0.0	 3	   0.000000	   0.951172	   0.000000; % COW
	2	 0.0	 0.0	 3	   0.000000	   0.958923	   0.000000; % NG
	2	 0.0	 0.0	 3	   0.000000	   0.882905	   0.000000; % NG
	2	 0.0	 0.0	 3	   0.000000	   1.030379	   0.000000; % NG
	2	 0.0	 0.0	 3	   0.000000	   1.223463	   0.000000; % NG
	2	 0.0	 0.0	 3	   0.000000	   0.737005	   0.000000; % NG
	2	 0.0	 0.0	 3	   0.000000	   1.449265	   0.000000; % NG
	2	 0.0	 0.0	 3	   0.000000	   1.236613	   0.000000; % NG
	2	 0.0	 0.0	 3	   0.000000	   1.070841	   0.000000; % NG
	2	 0.0	 0.0	 3	   0.000000	   1.129232	   0.000000; % NG
	2	 0.0	 0.0	 3	   0.000000	   7.263461	   0.000000; % PEL
	2	 0.0	 0.0	 3	   0.000000	   6.694495	   0.000000; % PEL
	2	 0.0	 0.0	 3	   0.000000	   6.352271	   0.000000; % PEL
	2	 0.0	 0.0	 3	   0.000000	   6.193850	   0.000000; % PEL
	2	 0.0	 0.0	 3	   0.000000	   6.678753	   0.000000; % PEL
	2	 0.0	 0.0	 3	   0.000000	   6.824183	   0.000000; % PEL
	2	 0.0	 0.0	 3	   0.000000	   1.338520	   0.000000; % NG
	2	 0.0	 0.0	 3	   0.000000	   0.997071	   0.000000; % NG
	2	 0.0	 0.0	 3	   0.000000	   1.082206	   0.000000; % NG
	2	 0.0	 0.0	 3	   0.000000	   1.154275	   0.000000; % COW
	2	 0.0	 0.0	 3	   0.000000	   7.038214	   0.000000; % PEL
	2	 0.0	 0.0	 3	   0.000000	   0.834712	   0.000000; % COW
	2	 0.0	 0.0	 3	   0.000000	   0.687871	   0.000000; % NG
	2	 0.0	 0.0	 3	   0.000000	   6.503985	   0.000000; % PEL
	2	 0.0	 0.0	 3	   0.000000	   6.710196	   0.000000; % PEL
	2	 0.0	 0.0	 3	   0.000000	   1.036215	   0.000000; % NG
	2	 0.0	 0.0	 3	   0.000000	   0.936210	   0.000000; % NG
	2	 0.0	 0.0	 3	   0.000000	   0.810727	   0.000000; % NG
	2	 0.0	 0.0	 3	   0.000000	   1.213072	   0.000000; % NG
	2	 0.0	 0.0	 3	   0.000000	   0.884496	   0.000000; % NG
	2	 0.0	 0.0	 3	   0.000000	   1.069815	   0.000000; % NG
	2	 0.0	 0.0	 3	   0.000000	   1.213424	   0.000000; % NG
	2	 0.0	 0.0	 3	   0.000000	   1.020502	   0.000000; % NG
	2	 0.0	 0.0	 3	   0.000000	   0.648997	   0.000000; % NG
	2	 0.0	 0.0	 3	   0.000000	   7.254893	   0.000000; % PEL
	2	 0.0	 0.0	 3	   0.000000	   1.412642	   0.000000; % NG
	2	 0.0	 0.0	 3	   0.000000	   1.309818	   0.000000; % NG
	2	 0.0	 0.0	 3	   0.000000	   0.885650	   0.000000; % NG
	2	 0.0	 0.0	 3	   0.000000	   1.216934	   0.000000; % COW
	2	 0.0	 0.0	 3	   0.000000	   1.083101	   0.000000; % NG
	2	 0.0	 0.0	 3	   0.000000	   6.824370	   0.000000; % PEL
	2	 0.0	 0.0	 3	   0.000000	   7.248099	   0.000000; % PEL
	2	 0.0	 0.0	 3	   0.000000	   6.885176	   0.000000; % PEL
...
];

%% branch data
%	fbus	tbus	r	x	b	rateA	rateB	rateC	ratio	angle	status	angmin	angmax
mpc.branch = [
	16	 1	 0.00155	 0.01169	 0.0182	 160.0	 160.0	 160.0	 0.0	 0.0	 1	 -30.0	 30.0;
	355	 1	 0.00157	 0.06612	 0.0	 160.0	 160.0	 160.0	 1.0099	 0.0	 1	 -30.0	 30.0;
	17	 2	 0.00155	 0.01169	 0.0182	 160.0	 160.0	 160.0	 0.0	 0.0	 1	 -30.0	 30.0;
	354	 2	 0.00157	 0.06612	 0.0	 160.0	 160.0	 160.0	 1.022	 0.0	 1	 -30.0	 30.0;
	10	 3	 0.01068	 0.07895	 0.1226	 274.0	 274.0	 274.0	 0.0	 0.0	 1	 -30.0	 30.0;
	219	 3	 0.00165	 0.06736	 0.0	 160.0	 160.0	 160.0	 1.027	 0.0	 1	 -30.0	 30.0;
	220	 3	 0.00165	 0.06736	 0.0	 160.0	 160.0	 160.0	 0.9955	 0.0	 1	 -30.0	 30.0;
	7	 4	 0.01674	 0.09711	 0.14423	 377.0	 377.0	 377.0	 0.0	 0.0	 1	 -30.0	 30.0;
	11	 4	 0.00293	 0.01599	 0.02478	 335.0	 335.0	 335.0	 0.0	 0.0	 1	 -30.0	 30.0;
	14	 4	 0.00442	 0.03223	 0.04985	 464.0	 464.0	 464.0	 0.0	 0.0	 1	 -30.0	 30.0;
	16	 4	 0.00888	 0.06665	 0.08896	 377.0	 377.0	 377.0	 0.0	 0.0	 1	 -30.0	 30.0;
	22	 4	 0.00783	 0.043	 0.04962	 350.0	 350.0	 350.0	 0.0	 0.0	 1	 -30.0	 30.0;
	245	 4	 0.00165	 0.06901	 0.0	 160.0	 160.0	 160.0	 1.0594	 0.0	 1	 -30.0	 30.0;
	246	 4	 0.00165	 0.06901	 0.0	 160.0	 160.0	 160.0	 1.0448	 0.0	 1	 -30.0	 30.0;
	5	 6	 0.00064	 0.0305	 0.0	 400.0	 400.0	 400.0	 1.0435	 -0.6	 1	 -30.0	 30.0;
	7	 5	 0.00525	 0.03988	 0.06195	 381.0	 381.0	 381.0	 0.0	 0.0	 1	 -30.0	 30.0;
	10	 5	 0.01459	 0.11219	 0.16553	 381.0	 381.0	 381.0	 0.0	 0.0	 1	 -30.0	 30.0;
	309	 5	 0.00165	 0.0686	 0.0	 160.0	 160.0	 160.0	 1.0646	 0.0	 1	 -30.0	 30.0;
	309	 5	 0.00165	 0.0686	 0.0	 160.0	 160.0	 160.0	 1.0523	 0.0	 1	 -30.0	 30.0;
	6	 8	 0.00112	 0.01329	 0.34125	 1316.0	 1316.0	 1316.0	 0.0	 0.0	 1	 -30.0	 30.0;
	6	 9	 0.00299	 0.03675	 0.9184	 1427.0	 1427.0	 1427.0	 0.0	 0.0	 1	 -30.0	 30.0;
	15	 6	 0.00298	 0.03417	 0.93504	 1427.0	 1427.0	 1427.0	 0.0	 0.0	 1	 -30.0	 30.0;
	31	 6	 0.0015	 0.01506	 0.4032	 1385.0	 1385.0	 1385.0	 0.0	 0.0	 1	 -30.0	 30.0;
	310	 6	 0.0015	 0.06188	 0.0	 250.0	 250.0	 250.0	 1.0613	 0.0	 1	 -30.0	 30.0;
	12	 7	 0.01211	 0.08742	 0.14017	 381.0	 381.0	 381.0	 0.0	 0.0	 1	 -30.0	 30.0;
	13	 7	 0.00205	 0.01326	 0.02243	 335.0	 335.0	 335.0	 0.0	 0.0	 1	 -30.0	 30.0;
	19	 7	 0.0057	 0.0407	 0.06021	 323.0	 323.0	 323.0	 0.0	 0.0	 1	 -30.0	 30.0;
	21	 7	 0.00093	 0.00651	 0.01113	 160.0	 160.0	 160.0	 0.0	 0.0	 1	 -30.0	 30.0;
	29	 7	 0.01269	 0.07498	 0.1302	 362.0	 362.0	 362.0	 0.0	 0.0	 1	 -30.0	 30.0;
	321	 7	 0.00041	 0.03368	 0.0	 250.0	 250.0	 250.0	 1.0323	 0.0	 1	 -30.0	 30.0;
	322	 7	 0.00165	 0.06775	 0.0	 160.0	 160.0	 160.0	 1.0569	 0.0	 1	 -30.0	 30.0;
	8	 18	 0.00336	 0.03977	 1.02163	 1316.0	 1316.0	 1316.0	 0.0	 0.0	 1	 -30.0	 30.0;
	332	 9	 0.00087	 0.05244	 -0.02144	 330.0	 330.0	 330.0	 1.0781	 0.0	 1	 -30.0	 30.0;
	171	 10	 0.01409	 0.10413	 0.15972	 464.0	 464.0	 464.0	 0.0	 0.0	 1	 -30.0	 30.0;
	346	 10	 0.00124	 0.06839	 0.0	 160.0	 160.0	 160.0	 1.0054	 0.0	 1	 -30.0	 30.0;
	347	 10	 0.00124	 0.06839	 0.0	 160.0	 160.0	 160.0	 1.024	 0.0	 1	 -30.0	 30.0;
	16	 11	 0.0057	 0.03952	 0.07553	 464.0	 464.0	 464.0	 0.0	 0.0	 1	 -30.0	 30.0;
	17	 11	 0.0057	 0.03952	 0.07553	 464.0	 464.0	 464.0	 0.0	 0.0	 1	 -30.0	 30.0;
	111	 11	 0.01068	 0.06196	 0.09496	 394.0	 394.0	 394.0	 0.0	 0.0	 1	 -30.0	 30.0;
	352	 11	 0.00165	 0.06901	 0.0	 160.0	 160.0	 160.0	 1.0412	 0.0	 1	 -30.0	 30.0;
	353	 11	 0.00165	 0.06901	 0.0	 160.0	 160.0	 160.0	 1.0559	 0.0	 1	 -30.0	 30.0;
	140	 12	 0.01465	 0.10589	 0.17085	 464.0	 464.0	 464.0	 0.0	 0.0	 1	 -30.0	 30.0;
	359	 12	 0.00155	 0.06612	 0.0	 160.0	 160.0	 160.0	 1.0395	 0.0	 1	 -30.0	 30.0;
	360	 12	 0.00157	 0.06612	 0.0	 160.0	 160.0	 160.0	 1.059	 0.0	 1	 -30.0	 30.0;
	29	 13	 0.01345	 0.08114	 0.14113	 339.0	 339.0	 339.0	 0.0	 0.0	 1	 -30.0	 30.0;
	365	 13	 0.00165	 0.06901	 0.0	 160.0	 160.0	 160.0	 1.0312	 0.0	 1	 -30.0	 30.0;
	366	 13	 0.00165	 0.06901	 0.0	 160.0	 160.0	 160.0	 0.9872	 0.0	 1	 -30.0	 30.0;
	17	 14	 0.00384	 0.02853	 0.04588	 464.0	 464.0	 464.0	 0.0	 0.0	 1	 -30.0	 30.0;
...